##TITLE=
##JCAMPDX= 6.0         $$ Bruker NMR JCAMP-DX V2.0
##DATA TYPE= NMR SPECTRUM
##DATA CLASS= NTUPLES
##ORIGIN= Bruker BioSpin GmbH
##OWNER= yarger
##LONG DATE= 2022/11/04 07:00:00+0000
$$ TopSpin 4.2.0
$$ 2025-07-10 16:32:37.131 -0700  yarger@YargerMBP2021-2.local
$$ Compression mode = diff/dup
##.OBSERVE FREQUENCY= 79.4130746
##.OBSERVE NUCLEUS= ^29Si
##.ACQUISITION MODE= SIMULTANEOUS
##.ACQUISITION SCHEME= undefined
##.AVERAGES= 137
##.DIGITISER RES= 16
##SPECTROMETER/DATA SYSTEM= varian
##.PULSE SEQUENCE= onepul
##.SOLVENT NAME= dmso
##.SHIFT REFERENCE= INTERNAL, dmso, 1, 270.7343
##AUDIT TRAIL= $$ (NUMBER, WHEN, WHO, WHERE, PROCESS, VERSION, WHAT)
$$ ##TITLE= Audit trail, TopSpin 4.2.0
$$ ##JCAMPDX= 5.01
$$ ##ORIGIN= Bruker BioSpin GmbH
$$ ##OWNER= yarger
$$ $$ /Users/yarger/Data/NMR/Si29Direct_SAA_sample_600sD1/Si29_Quartz_xtal_10kHzMAS_unknownscans_1800s.fid/1/pdata/1/auditp.txt
$$ ##AUDIT TRAIL=  $$ (NUMBER, WHEN, WHO, WHERE, PROCESS, VERSION, WHAT)
(   1,<2025-07-10 16:30:25.075 -0700>,<yarger>,<YargerMBP2021-2.local>,<vconv>,<TopSpin 4.2.0>,
      <vconv created from
       /Users/yarger/Data/NMR/Si29_Quartz_xtal_10kHzMAS_unknownscans_1800s.fid
       data hash MD5: 1K
       1C 70 4B BB B5 95 B9 FB 61 2F 19 59 2D EE 6A 16>)
(   2,<2025-07-10 16:30:25.324 -0700>,<yarger>,<YargerMBP2021-2.local>,<proc1d>,<TopSpin 4.2.0>,
      <Start of raw data processing
       em LB = 1 SI = 8K 
       data hash MD5: 8K
       48 41 A1 E2 2A F8 66 98 16 82 C5 87 EA 59 8F 8D>)
(   3,<2025-07-10 16:30:25.338 -0700>,<yarger>,<YargerMBP2021-2.local>,<proc1d>,<TopSpin 4.2.0>,
      <ft FT_mod = 6 PKNL = 0 SI = 8K REVERSE 
       data hash MD5: 8K
       59 F0 7C A9 F3 1E 1A EB FA F4 51 4D 02 20 36 DB>)
(   4,<2025-07-10 16:30:25.359 -0700>,<yarger>,<YargerMBP2021-2.local>,<proc1d>,<TopSpin 4.2.0>,
      <apk 
       data hash MD5: 8K
       4B D2 DB BE 1B 27 B8 BB A1 42 32 85 D4 34 3C AA>)
(   5,<2025-07-10 16:30:25.373 -0700>,<yarger>,<YargerMBP2021-2.local>,<proc1d>,<TopSpin 4.2.0>,
      <abs n ABSG = 5 
       data hash MD5: 8K
       7D 22 55 1D 88 25 DA 8C 88 30 B8 E2 CE 14 50 72>)
(   6,<2025-07-10 16:30:44.687 -0700>,<yarger>,<YargerMBP2021-2.local>,<cprserver>,<TopSpin 4.2.0>,
      <changed parameter F1 LB to 5.00>)
(   7,<2025-07-10 16:30:46.048 -0700>,<yarger>,<YargerMBP2021-2.local>,<cprserver>,<TopSpin 4.2.0>,
      <changed parameter F1 WDW to EM>)
(   8,<2025-07-10 16:30:49.125 -0700>,<yarger>,<YargerMBP2021-2.local>,<proc1d>,<TopSpin 4.2.0>,
      <Start of raw data processing
       efp LB = 5 FT_mod = 6 PKNL = 0 REVERSE PHC0 = -61.29845 PHC1 = 93.55893 SI = 8K 
       data hash MD5: 8K
       57 B4 F6 72 E2 11 05 99 A2 E8 25 7D 9F E0 CC 24>)
(   9,<2025-07-10 16:31:07.915 -0700>,<yarger>,<YargerMBP2021-2.local>,<proc1d>,<TopSpin 4.2.0>,
      <pk fgphup PHC0 = -30.4 PHC1 = 0 
       data hash MD5: 8K
       59 69 DB 61 5A 17 18 38 51 C8 91 5E 56 0D B2 C7>)
(  10,<2025-07-10 16:31:20.264 -0700>,<yarger>,<YargerMBP2021-2.local>,<audit>,<TopSpin 4.2.0>,
      <user comment:
       TITLE=TITLE_END
       data hash MD5: 8K
       59 69 DB 61 5A 17 18 38 51 C8 91 5E 56 0D B2 C7>)
(  11,<2025-07-10 16:31:26.288 -0700>,<yarger>,<YargerMBP2021-2.local>,<proc1d>,<TopSpin 4.2.0>,
      <Start of raw data processing
       efp LB = 5 FT_mod = 6 PKNL = 0 REVERSE PHC0 = -91.69845 PHC1 = 93.55893 SI = 8K 
       data hash MD5: 8K
       50 83 EC 07 01 BC B9 31 6A 66 B7 8A 7F A9 81 BD>)
$$ ##END=
$$ 
$$ $$ hash MD5
$$ $$ E6 32 9F 39 6D B8 6C 3A 25 59 9F 50 B0 52 66 BA
##$RELAX= 
$$ Bruker specific parameters
$$ --------------------------
##$DATPATH= </Users/yarger/Data/NMR/Si29Direct_SAA_sample_600sD1>
##$EXPNO= 1
##$NAME= <Si29_Quartz_xtal_10kHzMAS_unknownscans_1800s.fid>
##$PROCNO= 1
##$ACQT0= 0
##$AMP= (0..31)
100 100 100 100 100 100 100 100 100 100 100 100 100 100 100 100 100 100
100 100 100 100 100 100 100 100 100 100 100 100 100 100
##$AMPCOIL= (0..32)
0 0 0 0 0 0 0 0 0 0 0 0 0 0 0 0 0 0 0 0 0 0 0 0 0 0 0 0 0 0 0 0 0
##$AQSEQ= 0
##$AQ_mod= 1
##$AUNM= <onepul>
##$AUTOPOS= <>
##$BF1= 79.4165738092768
##$BF2= 100.13
##$BF3= 100.13
##$BF4= 500.13
##$BF5= 500.13
##$BF6= 500.13
##$BF7= 500.13
##$BF8= 500.13
##$BWFAC= (0..63)
0 0 0 0 0 0 0 0 0 0 0 0 0 0 0 0 0 0 0 0 0 0 0 0 0 0 0 0 0 0 0 0 0 0 0 0
0 0 0 0 0 0 0 0 0 0 0 0 0 0 0 0 0 0 0 0 0 0 0 0 0 0 0 0
##$BYTORDA= 0
##$CHANFCU= (0..24)
0 0 0 0 0 0 0 0 0 0 0 0 0 0 0 0 0 0 0 0 0 0 0 0 0
##$CHANREC= (0..24)
0 0 0 0 0 0 0 0 0 0 0 0 0 0 0 0 0 0 0 0 0 0 0 0 0
##$CHEMSTR= <none>
##$CNST= (0..63)
1 1 1 1 1 1 1 1 1 1 1 1 1 1 1 1 1 1 1 1 1 1 1 1 1 1 1 1 1 1 1 1 1 1 1 1
1 1 1 1 1 1 1 1 1 1 1 1 1 1 1 1 1 1 1 1 1 1 1 1 1 1 1 1
##$CPDPRG= (0..8)
<> <> <> <> <> <> <> <> <>
##$D= (0..63)
0 1800 0 0 0 0 0 0 0 0 0 0 0 0 0 0 0 0 0 0 0 0 0 0 0 0 0 0 0 0 0 0 0 0
0 0 0 0 0 0 0 0 0 0 0 0 0 0 0 0 0 0 0 0 0 0 0 0 0 0 0 0 0 0
##$DATE= 1667545200
##$DATE_START= 0
##$DE= 625
##$DECBNUC= <off>
##$DECIM= 1
##$DECNUC= <off>
##$DECSTAT= 7
##$DIGMOD= 1
##$DIGTYP= 6
##$DR= 16
##$DS= 0
##$DSPFIRM= 0
##$DSPFVS= 0
##$DTYPA= 0
##$EXP= <>
##$ExpStatus= 0
##$FCUCHAN= (0..9)
0 0 0 0 0 0 0 0 0 0
##$FILCOR= 0
##$FL1= 90
##$FL2= 90
##$FL3= 90
##$FL4= 90
##$FN_INDIRECT= (0..7)
0 0 0 0 0 0 0 0
##$FOV= 20
##$FQ1LIST= <freqlist>
##$FQ2LIST= <freqlist>
##$FQ3LIST= <freqlist>
##$FQ4LIST= <freqlist>
##$FQ5LIST= <freqlist>
##$FQ6LIST= <freqlist>
##$FQ7LIST= <freqlist>
##$FQ8LIST= <freqlist>
##$FS= (0..7)
83 83 83 83 83 83 83 83
##$FTLPGN= 0
##$FW= 27600
##$FnILOOP= 0
##$FnMODE= 0
##$FnTYPE= 0
##$GPNAM= (0..31)
<> <> <> <> <> <> <> <> <> <> <> <> <> <> <> <> <> <> <> <> <> <> <> <>
<> <> <> <> <> <> <> <>
##$GPX= (0..31)
0 0 0 0 0 0 0 0 0 0 0 0 0 0 0 0 0 0 0 0 0 0 0 0 0 0 0 0 0 0 0 0
##$GPY= (0..31)
0 0 0 0 0 0 0 0 0 0 0 0 0 0 0 0 0 0 0 0 0 0 0 0 0 0 0 0 0 0 0 0
##$GPZ= (0..31)
0 0 0 0 0 0 0 0 0 0 0 0 0 0 0 0 0 0 0 0 0 0 0 0 0 0 0 0 0 0 0 0
##$GRPDLY= -1
##$HDDUTY= 20
##$HDRATE= 1
##$HGAIN= (0..3)
0 0 0 0
##$HOLDER= 0
##$HPMOD= (0..32)
0 0 0 0 0 0 0 0 0 0 0 0 0 0 0 0 0 0 0 0 0 0 0 0 0 0 0 0 0 0 0 0 0
##$HPPRGN= 0
##$IN= (0..63)
0.001 0.001 0.001 0.001 0.001 0.001 0.001 0.001 0.001 0.001 0.001 0.001
0.001 0.001 0.001 0.001 0.001 0.001 0.001 0.001 0.001 0.001 0.001 0.001
0.001 0.001 0.001 0.001 0.001 0.001 0.001 0.001 0.001 0.001 0.001 0.001
0.001 0.001 0.001 0.001 0.001 0.001 0.001 0.001 0.001 0.001 0.001 0.001
0.001 0.001 0.001 0.001 0.001 0.001 0.001 0.001 0.001 0.001 0.001 0.001
0.001 0.001 0.001 0.001
##$INF= (0..7)
0 0 0 0 0 0 0 0
##$INP= (0..63)
0 0 0 0 0 0 0 0 0 0 0 0 0 0 0 0 0 0 0 0 0 0 0 0 0 0 0 0 0 0 0 0 0 0 0 0
0 0 0 0 0 0 0 0 0 0 0 0 0 0 0 0 0 0 0 0 0 0 0 0 0 0 0 0
##$INSTRUM= <varian>
##$INTEGFAC= (0..63)
0 0 0 0 0 0 0 0 0 0 0 0 0 0 0 0 0 0 0 0 0 0 0 0 0 0 0 0 0 0 0 0 0 0 0 0
0 0 0 0 0 0 0 0 0 0 0 0 0 0 0 0 0 0 0 0 0 0 0 0 0 0 0 0
##$L= (0..31)
1 1 1 1 1 1 1 1 1 1 1 1 1 1 1 1 1 1 1 1 1 1 1 1 1 1 1 1 1 1 1 1
##$LFILTER= 10
##$LGAIN= -10
##$LINPSTP= 0
##$LOCKED= no
##$LOCKFLD= 0
##$LOCKGN= 0
##$LOCKPOW= -20
##$LOCKPPM= 0
##$LOCNUC= <2H>
##$LOCPHAS= 0
##$LOCSHFT= no
##$LOCSW= 0
##$LTIME= 0.1
##$MASR= 0
##$MULEXPNO= (0..15)
0 0 0 0 0 0 0 0 0 0 0 0 0 0 0 0
##$NBL= 1
##$NC= 0
##$NLOGCH= 1
##$NOVFLW= 0
##$NS= 137
##$NUC1= <29Si>
##$NUC2= <1H>
##$NUC3= <15N>
##$NUC4= <off>
##$NUC5= <off>
##$NUC6= <off>
##$NUC7= <off>
##$NUC8= <off>
##$NUCLEUS= <off>
##$NUSLIST= <automatic>
##$NusAMOUNT= 25
##$NusFPNZ= no
##$NusJSP= 0
##$NusSEED= 54321
##$NusSPTYPE= 0
##$NusT2= 1
##$NusTD= 0
##$O1= -3499.20927679648
##$O2= -7195.9
##$O3= -11063.7
##$O4= 0
##$O5= 0
##$O6= 0
##$O7= 0
##$O8= 0
##$OVERFLW= 0
##$P= (0..63)
5.999999 0 0 46.40001 0 0 0 0 0 0 0 0 0 0 0 0 0 0 0 0 0 0 0 0 0 0 0 0 0
0 0 101.0101 0 0 0 0 0 0 0 0 0 0 0 0 0 0 0 0 0 0 0 0 0 0 0 0 0 0 0 0 0
0 0 0
##$PACOIL= (0..32)
0 0 0 0 0 0 0 0 0 0 0 0 0 0 0 0 0 0 0 0 0 0 0 0 0 0 0 0 0 0 0 0 0
##$PAPS= 0
##$PARMODE= 0
##$PCPD= (0..9)
100 100 100 100 100 100 100 100 100 100
##$PEXSEL= (0..9)
1 1 1 1 1 1 1 1 1 1
##$PHCOR= (0..31)
0 0 0 0 0 0 0 0 0 0 0 0 0 0 0 0 0 0 0 0 0 0 0 0 0 0 0 0 0 0 0 0
##$PHLIST= <>
##$PH_ref= 0
##$PL= (0..63)
120 120 120 120 120 120 120 120 120 120 120 120 120 120 120 120 120 120
120 120 120 120 120 120 120 120 120 120 120 120 120 120 120 120 120 120
120 120 120 120 120 120 120 120 120 120 120 120 120 120 120 120 120 120
120 120 120 120 120 120 120 120 120 120
##$PLSTEP= 0.1
##$PLSTRT= -6
##$PLW= (0..63)
-1 -1 -1 -1 -1 -1 -1 -1 -1 -1 -1 -1 -1 -1 -1 -1 -1 -1 -1 -1 -1 -1 -1 -1
-1 -1 -1 -1 -1 -1 -1 -1 -1 -1 -1 -1 -1 -1 -1 -1 -1 -1 -1 -1 -1 -1 -1 -1
-1 -1 -1 -1 -1 -1 -1 -1 -1 -1 -1 -1 -1 -1 -1 -1
##$PLWMAX= (0..7)
0 0 0 0 0 0 0 0
##$PQPHASE= 0
##$PQSCALE= 1
##$PR= 1
##$PRECHAN= (0..32)
-1 -1 -1 -1 -1 -1 -1 -1 -1 -1 -1 -1 -1 -1 -1 -1 -1 -1 -1 -1 -1 -1 -1 -1
-1 -1 -1 -1 -1 -1 -1 -1 -1
##$PROBHD= <>
##$PROBINPUTS= (0..15)
<> <> <> <> <> <> <> <> <> <> <> <> <> <> <> <>
##$PULPROG= <onepul>
##$PW= 0
##$PYNM= <acqu.py>
##$ProjAngle= 0
##$QNP= 0
##$RECCHAN= (0..9)
-1 -1 -1 -1 -1 -1 -1 -1 -1 -1
##$RECPH= 0
##$RECPRE= (0..24)
-1 -1 -1 -1 -1 -1 -1 -1 -1 -1 -1 -1 -1 -1 -1 -1 -1 -1 -1 -1 -1 -1 -1 -1
-1
##$RECPRFX= (0..32)
-1 -1 -1 -1 -1 -1 -1 -1 -1 -1 -1 -1 -1 -1 -1 -1 -1 -1 -1 -1 -1 -1 -1 -1
-1 -1 -1 -1 -1 -1 -1 -1 -1
##$RG= 1
##$RO= 10000
##$RSEL= (0..24)
0 0 0 0 0 0 0 0 0 0 0 0 0 0 0 0 0 0 0 0 0 0 0 0 0
##$SAMPLEID= <>
##$SFO1= 79.4130746
##$SFO2= 399.7382238
##$SFO3= 40.4985551
##$SFO4= 500.13
##$SFO5= 500.13
##$SFO6= 500.13
##$SFO7= 500.13
##$SFO8= 500.13
##$SOLVENT= <dmso>
##$SOLVOLD= <off>
##$SP= (0..63)
120 120 120 120 120 120 120 120 120 120 120 120 120 120 120 120 120 120
120 120 120 120 120 120 120 120 120 120 120 120 120 120 120 120 120 120
120 120 120 120 120 120 120 120 120 120 120 120 120 120 120 120 120 120
120 120 120 120 120 120 120 120 120 120
##$SPECTR= 0
##$SPINCNT= 0
##$SPNAM= (0..63)
<> <> <> <> <> <> <> <> <> <> <> <> <> <> <> <> <> <> <> <> <> <> <> <>
<> <> <> <> <> <> <> <> <> <> <> <> <> <> <> <> <> <> <> <> <> <> <> <>
<> <> <> <> <> <> <> <> <> <> <> <> <> <> <> <>
##$SPOAL= (0..63)
0.5 0.5 0.5 0.5 0.5 0.5 0.5 0.5 0.5 0.5 0.5 0.5 0.5 0.5 0.5 0.5 0.5 0.5
0.5 0.5 0.5 0.5 0.5 0.5 0.5 0.5 0.5 0.5 0.5 0.5 0.5 0.5 0.5 0.5 0.5 0.5
0.5 0.5 0.5 0.5 0.5 0.5 0.5 0.5 0.5 0.5 0.5 0.5 0.5 0.5 0.5 0.5 0.5 0.5
0.5 0.5 0.5 0.5 0.5 0.5 0.5 0.5 0.5 0.5
##$SPOFFS= (0..63)
0 0 0 0 0 0 0 0 0 0 0 0 0 0 0 0 0 0 0 0 0 0 0 0 0 0 0 0 0 0 0 0 0 0 0 0
0 0 0 0 0 0 0 0 0 0 0 0 0 0 0 0 0 0 0 0 0 0 0 0 0 0 0 0
##$SPPEX= (0..63)
0 0 0 0 0 0 0 0 0 0 0 0 0 0 0 0 0 0 0 0 0 0 0 0 0 0 0 0 0 0 0 0 0 0 0 0
0 0 0 0 0 0 0 0 0 0 0 0 0 0 0 0 0 0 0 0 0 0 0 0 0 0 0 0
##$SPW= (0..63)
0 0 0 0 0 0 0 0 0 0 0 0 0 0 0 0 0 0 0 0 0 0 0 0 0 0 0 0 0 0 0 0 0 0 0 0
0 0 0 0 0 0 0 0 0 0 0 0 0 0 0 0 0 0 0 0 0 0 0 0 0 0 0 0
##$SUBNAM= (0..9)
<> <> <> <> <> <> <> <> <> <>
##$SW= 629.619244083518
##$SWIBOX= (0..32)
0 0 0 0 0 0 0 0 0 0 0 0 0 0 0 0 0 0 0 0 0 0 0 0 0 0 0 0 0 0 0 0 0
##$SW_h= 50000
##$SWfinal= 0
##$SigLockShift= 0
##$TD= 1024
##$TD0= 1
##$TD_INDIRECT= (0..7)
0 0 0 0 0 0 0 0
##$TDav= 0
##$TE= 301
##$TE1= 300
##$TE2= 300
##$TE3= 300
##$TE4= 300
##$TEG= 300
##$TE_MAGNET= 300
##$TE_PIDX= 0
##$TE_RAW= 300
##$TE_STAB= (0..9)
0 0 0 0 0 0 0 0 0 0
##$TOTROT= (0..63)
0 0 0 0 0 0 0 0 0 0 0 0 0 0 0 0 0 0 0 0 0 0 0 0 0 0 0 0 0 0 0 0 0 0 0 0
0 0 0 0 0 0 0 0 0 0 0 0 0 0 0 0 0 0 0 0 0 0 0 0 0 0 0 0
##$TUBE_TYPE= <>
##$USERA1= <>
##$USERA10= <>
##$USERA2= <>
##$USERA3= <>
##$USERA4= <>
##$USERA5= <>
##$USERA6= <>
##$USERA7= <>
##$USERA8= <>
##$USERA9= <>
##$UUID= <>
##$V9= 5
##$VALIDCODE= 0
##$VALIST= <valist>
##$VCLIST= <>
##$VDLIST= <>
##$VPLIST= <>
##$VTLIST= <>
##$WAVEMAKER= (0..7)
<> <> <> <> <> <> <> <>
##$WBST= 1024
##$WBSW= (0..7)
10 10 10 10 10 10 10 10
##$XL= 0
##$YL= 0
##$YMAX_a= 526138368
##$YMIN_a= -477063072
##$ZGOPTNS= <>
##$scaledByNS= no
##$scaledByRG= no
##$shimCoilTempK= 300
##$ABSF1= 0
##$ABSF2= 0
##$ABSG= 0
##$ABSL= 0
##$ALPHA= 0
##$AQORDER= 0
##$ASSFAC= 0
##$ASSFACI= 0
##$ASSFACX= 0
##$ASSWID= 0
##$AUNMP= <proc_1d>
##$AXLEFT= 0
##$AXNAME= <>
##$AXNUC= <29Si>
##$AXRIGHT= 0
##$AXTYPE= 0
##$AXUNIT= <>
##$AZFE= 0.1
##$AZFW= 0.5
##$BCFW= 0
##$BC_mod= 0
##$BYTORDP= 0
##$COROFFS= 0
##$CY= 15
##$DATMOD= 1
##$DC= 0
##$DFILT= <>
##$DTYPP= 0
##$ERETIC= no
##$F1P= 0
##$F2P= 0
##$FCOR= 0.5
##$FTSIZE= 8192
##$FT_mod= 6
##$GAMMA= 0
##$GB= 0
##$INTBC= 1
##$INTSCL= 1
##$ISEN= 128
##$LB= 5
##$LEV0= 0
##$LPBIN= 0
##$MAXI= 10000
##$MC2= 0
##$MEAN= 0
##$ME_mod= 0
##$MI= 0
##$MddCEXP= no
##$MddCT_SP= no
##$MddF180= no
##$MddLAMBDA= 0
##$MddMEMORY= 0
##$MddMERGE= 0
##$MddNCOMP= 0
##$MddNITER= 0
##$MddNOISE= 0
##$MddPHASE= 0
##$MddSEED= 0
##$MddSRSIZE= 0
##$Mdd_CsALG= 0
##$Mdd_CsLAMBDA= 0
##$Mdd_CsNITER= 0
##$Mdd_CsNORM= 0
##$Mdd_CsVE= no
##$Mdd_CsZF= 0
##$Mdd_LrLAMBDA= 0
##$Mdd_LrNITER= 0
##$Mdd_LrRANK= 0
##$Mdd_LrZF= 0
##$Mdd_mod= 0
##$NCOEF= 0
##$NC_proc= 8
##$NLEV= 6
##$NOISF1= 0
##$NOISF2= 0
##$NSP= 0
##$NTH_PI= 0
##$NZP= 0
##$OFFSET= 270.7343
##$PC= 4
##$PHC0= -91.69845
##$PHC1= 93.55893
##$PH_mod= 1
##$PKNL= no
##$PPARMOD= 0
##$PPDIAG= 0
##$PPIPTYP= 0
##$PPMPNUM= 2147483647
##$PPRESOL= 1
##$PSCAL= 0
##$PSIGN= 0
##$PYNMP= <proc.py>
##$RDF1= 0
##$RDF2= 0
##$RDFWHM= 0
##$RDINT= 0
##$RDPOS= 0
##$REVERSE= yes
##$SF= 79.4165738092768
##$SI= 8192
##$SIGF1= 0
##$SIGF2= 0
##$SINO= 16
##$SIOLD= 1024
##$SPECTYP= <>
##$SREF_mod= 1
##$SREGLST= <1H.CDCl3>
##$SSB= 0
##$STSI= 8192
##$STSR= 0
##$SW_p= 50000
##$SYMM= 0
##$S_DEV= 0
##$TDeff= 1024
##$TDoff= 0
##$TI= <>
##$TILT= no
##$TM1= 0
##$TM2= 0
##$TOPLEV= 0
##$USERP1= <>
##$USERP10= <>
##$USERP2= <>
##$USERP3= <>
##$USERP4= <>
##$USERP5= <>
##$USERP6= <>
##$USERP7= <>
##$USERP8= <>
##$USERP9= <>
##$WDW= 1
##$XDIM= 8192
##$YMAX_p= 303658829
##$YMIN_p= -56463026
##$CURPLOT= <>
##$CURPRIN= <>
##$DFORMAT= <>
##$LAYOUT= <>
##$LFORMAT= <>
##$PFORMAT= <>
$$ End of Bruker specific parameters
$$ ---------------------------------
##NTUPLES= NMR SPECTRUM
##VAR_NAME=  FREQUENCY,     SPECTRUM/REAL,   SPECTRUM/IMAG
##SYMBOL=    X,             R,               I
##VAR_TYPE=  INDEPENDENT,   DEPENDENT,       DEPENDENT
##VAR_FORM=  AFFN,          ASDF,            ASDF
##VAR_DIM=   8192,          8192,            8192
##UNITS=     HZ,            ARBITRARY UNITS, ARBITRARY UNITS
##FACTOR=    6.103515625,   1,               1
##FIRST=     49993.896484375, 297817,        -970078
##LAST=      0,             -217609,         -361059
##MIN=       0,             -56463026,       0
##MAX=       49993.896484375, 303658829,     0
$$ Real data points
##PAGE= N=1
##DATA TABLE= (X++(R..R)), XYDATA
8191B97817L10001p8819B9443h94143j318287j650129j888126k007148j990732
8182i748565j833000j539514j126946o21692n7577N27009J092260J600035K016612
8173i691378K314938K476227b409267e0110B040258J702902J222905O82992J20556
8164E769613m24291r11116j301895j563946a04526j615394j391317j015001n15306
8155d641544O5768O75989J257212h91794A211744K273786K236451J986804J542098
8146I250883R40790K39247m93825j184671j762695k168599k361428A36125a926955
8136c539732j026398l72021K76331Q47831J283557i86846F24670J495782J227567
8127C348019Q55640M38784L6945k97661n28150o38202o34089n43186m09154k84457
8117A344489k21304k62396D27946c06605j144026j614022k078968k463506k693002
8108a0300129k704589k457166j938868j170888k06954Q71582J964494K964197
8100a2978321L768508M292985d35641C875841L799523K996044J980364Q50467
8092A3502239k88918j338611k216017k863409l252488A58052c129725l008363
8084f138088k603429k130487j638999j164031p23108l16649O8236M51392Q51912
8075a3343251J280560J733776K190489K612499b577323E64694L139973K904079
8067F608746K419628J702254Q00518k06337j215588k112529k784881B073570a036804
8057c719011j883728p93614M67731J751200a280867B471584M196282M151179L597792
8048A4416837K579056J197071l97740k024031l491361m623719B374365c006341
8039g908177l895519k475778q06711R17405K495852L745969c401651A346966M397505
8030E744471L521654K231504O83514r40011k453805l692243E66330d323319m760732
8021i084051m186103l259595k110260q84058K75648J246136J939591K311820K364563
8012a1386309K141421J718329J190212O55942K03821j00368k21142j56098O6437
8003e887755L94210P60978J097892J344480h32645E84111J226152R11702N15455
7994C237420Q7489l22871o75015r42874B66486i40695j231951j218950j194251
7985d585847j175950j168810j161725j128636j032897q34492m98958o446O40662
7976a0953099J413152K254444L084632c91980C937279M558315M432716L924609
7968A6852919L049007J865766M75529r90206k383772l559037m389774m786232
7960F134200A426652b741543l237382k031318o99212N95231J694413K466787a129549
7950A599758K206754J332258K25449r67259k092390g05178l610581l831034l659179
7941a1805972l134658k341177j393000m17520M63539J151522J584326J744054
7933a4148886J657759J391298J037277O98956M72623M31122O11065J005752J564886
7924e278148K201268b73384B979490L442019L292408K768211J884250P06790o53134
7915A4420034k053068l337341m357681c21351n167614m859254m105642k998669
7907a7452530j672932k88160R91806K020530K688082K935016K759374K215734
7899e803080J406489M66638m55747j220627j715670j871773j672253j154490m03825
7890a2424338M59346J297407J975746K382455K444744a724880b26577C74349e8599
7880a520042k339750k940143l169655k982997k389036j449921k73114J002583
7872a6062075K225005L248187L950851b386625A730905L569224K675075J542443
7864I517647L03020r04197j950181k731178A055012b217708l028134k503677j785328
7855i534847r75064j77022N15646J031549J328211J394943J251363R42126N28857
7846c694238Q0637l35603o63456q63214r15228q20332n97615k80145R0485M69908
7836g528801Q16232J094143J277549J350692J307937e29642C65674N52249J43669
7827A061592l07178b0377j232000j650631k002603k261580k405269k418161k294376
7818a4284997k040078j674911j231891p55431k97386Q8651L54197M63055L97715
7809a8981076J63954k07313o61571j125764j516575j751035j758180j490178r31273
7800b8259011j03126R34562K088547L241449M265104N036274N452697a896193
7791C102394M135374K935326J516867K5479j383979k566687l406413E27760c292114
7781f702603k689211j781207q32451J0973O23827R19978Q65298M83255j47771
7772i249912r05255j640046k198271k444645k283846j676877o49914P05826K243474
7763a8099466L778097N110295c158365C297491O229747N358213L903877K002824
7755B0792152j50427k325892m286015n814917A469778e508448o496804n365969
7747a7371221l724422j766247K84117K200301L782070M879290N408706i45963
7738C854474L848407K668255J438813L29395n23244j032399j171036r72421n21919
7729G918325N8590O31219J064354J253376J136800P05474L611q78392j818177
7720A0075180k680441l337885C65968c316989l309698k619887j708572p03217
7712a1658363K55079J032433J522071J660279J436048Q93013J23355p45441j569034
7703g050560k207216k544389k506544k072311j276483k05520J014286K234272
7695a4614465L303951M091711b716098A775323M067221L292134K271369J138001
7687A2544048L4127r08733j587173j938921j949540j652073j119816m53556K34729
7678C203092Q39136J275449J492778J479584J263272R03640M81321Q3178k12949
7669A0808501l51703l09695r9508K32423O13703R58413J182061J216654J023428
7660A5274277O01118j1699p40718j486002k136686k588078k758604k603938A423616
7650D7987c99193A33367J421586K082503K402592K311097J791173Q84635l11389
7641A0715564j655614k980187A967378b930117n219730n018255m296109l120709
7633b0584920j615813N3989J704172L153745M248082M878063c169722A435667
7624E223461K661032J376807R6445j030988j888172k403997A473497i22037j989000
7615b911037j454593r18599n00793k96214l60948p03916j285713k024539k808239
7606a3264591l510615m009602m204690m031120l468922k545653j332568O5001
7598c6302760J521595K907760M106041N024606N606653N834510e573500b35227
7589D501202M002010L210093K420938J673054R80745L36319k83624r09029j566081
7580A4365627k267592l005827l749158H99833d116751n390267n489557n256502
7572b0253077m661038l708948k445327r52764O55687K247996L687613M849044
7564b0580814N632404N975041c114734B196113M401354L232805J928066O15413
7556A2373751n86231j580140k301042k719761B343722c63883k373352j910674
7548d647909j390123q72236m00248L546L37458O16399Q65127J110029J370995
7539c006962a352131E99292K233346K459075K579303K545367K318406J877705
7531A4612494J226811L96283n57534j557703k515285l340123l952363A9559d312483
7521h385162l551429k833546k004651j159615l90266K26412O37881Q22195P89839
7512a5848342N81050K59115r9392m15951o21412o65655n24267k01395K71589Q41216
7502a6423444J440048J996494K444859K734142K834356b233970B33389K054867
7494B288256J552360J015253M95968L6901l34489o07777p88712q95662r54177
7485A807921H17270b09032j072532j128508j181401j209252j185939j087382q97839
7476g971885o15129k53731J54924N65243R23071J173373J268848J178181Q92538
7467b684567M29211j68358q34403j488107k043506k420623k556342k413440j986422
7458a6166557j303296m22894N71919J584284K515281L276081L798663b102907
7449A901026L704413L196711K550961J845179J154104N39096M0610l25711n68829
7440A4037560p18132q16051r08763j036522j225253j480826j786994k107386A566324
7430a016120k629066k494084k163251j650033r96218k67914M52650J078432J530394
7421h155210J749879J708648J414885R14077K84383l73089r47880j335829j454562
7412f194698j256573p37888N9089J049203K114339a848302B076026M414421M505276
7403A0995723M161099L399900K292766R56012m62882j803698k913879l668120
7395A2956921l984544l835224A887513d23064j143036J02353a94628B020658K831474
7386D852132L054348K873672K332051J517574N50446m34428j306384j956873k313719
7377I168819k349915k085779j584368r40904k67890L21881P31935Q95954P86909
7368D676642M20247j49181q35931j537082D27020b149185k757868k663669k304179
7359i874901j727411j011303k51963M50499J006442J349313J444622J293994R33832
7350f386876M28877j38247o79862j116468j388372j463990j343641j058332o63820
7341a3810731k30956J66146M62242O11499N94801M22742J33804k11920n42494
7332a2404867p85862q81686p91451n05252m4186N42065J182105J793158K293297
7323i602679K613698K709105a715040D84259J661570J024365L73475k04840o36531
7314B702298q70686q86994B45960a04303a5240E20976R06816J128143J150373
7305C706308R54400N55062p44o40796j278157A471990g29312k355694k264579
7296e349585j940389j429120q03762j53658M28644Q61109J084471J071187Q29737
7287e401366M03613j34899o95245j181907j508540j610859j456358j049433m31133
7278a3066127L26462J130391J880043K481498K860907a411919A404637K415926
7270C820563J835244J159334M82768j04348n29846p50178p56740n76845k69190
7261D310762Q5523L97444N81965N73529L36720j27030p78207j543723A510415
7251a508853l519240l743776l642513l205511k465698j495296l96659P11225J708636
7242a7557685K491194K983792L150395K998281K576142a391588a19455D83239
7233E39757B46978a60138k89195J8451I553Q80573J237216J419634J363007J039761
7223E949744M65502l01428j166850k013235B17673b944106l264834k981230k316689
7214a1506859j328055j17625J178982K409858L426505a833668B521979M149679
7206F671658L509758K515063J290236j0302j222054k191611k796474k960881B139805
7196A89514g18892L25082A197257K726732L586228M058931M082879L651750K814537
7187B2118314J668112L43794j010191k247943l244246l909613m200121m120852
7179E397254A674601a418244k341328j584067r26380m48270j93865j66308l28741
7170g407203o11129r21881j162567j243634j098871o96614m6083Q02019J760814
7161a0625149K717718L548787b23692D154412M214842L626116K641484J337411
7153A5974265j70237j738540l213267m446045A095235d623202n625239n038774
7145a5287215m016002k656758j092527N27930K054407L350696M307926M854427
7137g957116b995960A646384L951514K973606J814304N87937n94625j636743k464344
7128F278033l031098g3220l342508l132519k741376k229459j658574j085047n54345
7119a4817048r7752K68762N43561P36641Q65775R52117J015981J073338J133477
7110h325148J198065J261634J313290J339325J326249f22819E24375R79001P69149
7101B272525N34275K95743P6881j00199k17768k65142k40447j51218j3664J49301
7091B340287L11076M45035N28369N45553M90966L70233K00037O350j78789l21566
7081D737551l91258l65028k32001M001L23507O92505J065599J390958J616535
7072H842369J696822J599334J309935Q36265K08693n21485j286558k009234k611078
7063H065063l021619A856410a220923k691076k056946j231829k95474O57750J529142
7054e309356K226837d05989B424495K673673K226234J541873P02264j91930j032469
7045H344140j716018k156268B177610G2083a531461q38454J08259a128815I92154
7035C952837L555023L832922L757031L327619K582101J590322M46200p43218j869946
7026B0430891k837016l568803m018504m171974A787047a904932l173142k570433
7018g648507j964180j425354j006881p37571o19374o28202p18157q28538q92726
7009a6469490q47782o43572k50301L36487J093985J973550K905249L805049c513063
6999A643721N453523N425464N052043M343694L341725K115111P54477o36084j948546
6990B5545128l080912l946633m482596m654923m462052I83210b150224k141975
6982d292199j060285N341R52234J691111e49178A754662K132088J665598R60977
6973F513325R9576q20720j695515A671877a251643l130978l017591k588680j884471
6964a1873363r76332M0515J057077J962456K656213L059850i47507A897243K244712
6955D141955J391194L79016o77768j658610A125636a833632l123914k920425k366420
6946a0244391j518858m67483O75601J788954K755854L477673C52250L944520L662807
6937G959577L083305K280239J348349L90446m95611j228826j754306k048665k120961
6928G413547k009133j772546j481796I42823f5208r23021r65182j120025j348406
6919d421842j593234j789103j873357j796979j533594j085201m83711K12106R23853
6910a3441062J564039K048394K308236K301088K017926J485920P66166n3470q69439
6901a872202j576124k080072k312906k241020j870679j247697m51640M14720J239292
6892a1998328J916026K359585K517272K376487h62324D92760O37736p4602C83783
6882f78150j181952j010366n69662P5728Q27817i68111A207919K542833K591269
6873F342021K286013J640677P17849l77658j511530k537051C246002d82999l708131
6864d191130l230707k331693j098745L37953J821425L187209a222035C768538
6855I002353M993794M307000L260261J978668O08797p00423j816646k640283l115806
6846A5877715l236735l043801k616646k060415j489166j008576p00345o10570
6838A111461C67832f94618j495020j946133k312655k500029k437628k090681j467018
6829a4943782o17613L69231J379294K287870K977104L352781a836889A146433
6820C413745J294954J86426r17681j874323d53420k870076k765863k246753j367527
6811i703639k28247J038199K282713c252412H87105M535220M501804M046543L225973
6802A7196645K137891R08393l24283j426953k287495k827660l011162k846180
6794G519196k382185j701708r08376j12885N81140J089575J356997J361637J115688
6785G919079O61239O2662o03295j258193j831858k270315A38555b494589k558423
6776e053012k344092k027908j650921j251007q57881m90257j55463J48668M30152
6767a3251721O98291R59138J211947J447294J647366J788366J844736J794425
6759a860158b35856A098807R41934M78857q067m63782q31908A52844i69809r98180
6749a967989p02636k75446K20816P07323i19081C96343J294232J000137M33255
6740C123967l67702j327024i09453l277603m014080m430085m435014l979103l062571
6731b4107909j739148j13247J669166L435164N003363O204267b748272D253260
6722A0733078N371791L777931J852928k10084k199986l910546n163112D425461
6713a406569n181182l946247k262552l13889J687491L524070b902086C044668
6704I317061N940300M988535L522081J701040k77067k198906l858412n078841
6696A4055791n731374B576057b553745l942566k312481m10365J566431L414896
6688d237830G09535O010467O500035O370581N638464M378639K715525Q09158j161795
6679C1970609l018274m598388n772539o454657E518195g30818n437700m274642
6671a0443160k886328j411841J1425J261015K240307K886079L172199b060996
6662F79783K135667J379578N64558k20827r00234j416226D87908a356712j759686
6653c116398j511477j145505p14474k71659J35097M68157P03233Q30624Q54634
6644c767768P91374O65364N05454L40598J96038R0301L3323K5852O0088J21398
6634i37978J90823K48008b24987B9713J81268N2903j23695a94655n61328p80466
6624a536449r68531j103260j166189j144607j032936q33451n56276k18703J56135
6615h404267N41064R07054J225587J471033J622887i68988F31282J424895J154986
6606C211163Q12617M26997L2289l35170o40046q51323r45467H01947F0978c91698
6595d60152h3584G55640J272229J628771J867362J956430J878122J630875J230371
6586A2219800P08692J11647n05516j083608j565679j903176k061410k023682j793549
6577B103519G08613a61208k74309a07952G62592J295318J555056J620639J483932
6568F717537J158724O79213R6186n28645j129526j643938k019441A110817a115394
6558c159253j695915j222913o77217j16788M01498Q28224J126713J276710J276021
6549a962920h22870G6480N95568K76293j0494k21782l24057I5409c7800A19839
6538F74011J023871J526868K019725K459183K805506L025207L092982K992883
6530A9620236K718793K274364J672581R35090R1391q22087j763093k684927l538212
6521A8504136m273134m842230D185185a139152n184103m778021m118942l238348
6513a8458566k185712j026062J64184J302926K309158L110193L648597L888016
6505g247266c430040B1765K833127K024657J105841J64186p13641j450699j987660
6496A997576b91174k345066k174822j820522j343356q15493l11193J02175L72126
6487h627325M67092L79770J27370k51190p00812j157706j557876j845500j980145
6478a5146322j941857j733528j380199r25458m25371N9204M70936P63863R09730
6469a9349002R01988P56912N11697K19744n6245k52518l12798j96009J17768O23878
6459a7034585J292637K071907K892390L674998b763239B049574N037739M978208
6451A2065521M623398L988549L113044K055999Q89969l06467j456301k491057
6443B2482655l356323m015366m450552m662592A329897c164836m178212l755794
6435a1098842l262942k729994k180378j630245j089410n63262n5190M30954Q88869
6426b1290440J308613J676488J976013K189819K302224K301992K184876J955463
6418e394952J627992J225921P80235L26632r8076m59907p31485q95134r44902
6409d563676q87160p39734n29599k89439n3486J46840K86921L52058L39312K57804
6399e680159J27461k3670j63175k58641k82048k13644m4805K20518N65924R64271
6389d787968J380749a630296D84950K363473K498380K508373K394619K170568
6381A2420363J859952J493514J104916P26348L84443R7040j28795k97173m22180
6372A7238428n25215o31195p64166r42890j177057j464655j790925k129119k443054
6363E370152B678940a52981k828999k657154k306404j784943j119938l56100M47965
6354a0758554J225270J907285K431315b447074C78253K656636K258374J671041
6346F964304R55095J84933n58838j198000j665229j911564H58754h09430j208980
6337b018410n86952J27023Q51536a23199A884643K304808K357604K155967J717390
6328A0420412J085166L23566m89274j269973j939010k429341k693526B99398b178903
6318d210954j421535p14661J2003O81542J224807J587452a106200E50275J363308
6309A913583Q88687K82639l93578j074042g7503k199813k545759k705032k667039
6300a0195146k437657k037186j497187q56687j58300N55334J244401J873901K414729
6291a1093798K843961L144588a800275A518073L182552K900173K479111J933397
6283A2013306J284076N59813k03085r61533j667582k271421k725324k988204I727
6273b827812k414593j786724r99375j15663P88280J629820K327592e88695B433316
6263E367273K543793J879920R99549j5846j067891k050803k862102A380499b259561
6253e768357l022028k218719j171300K1027J241964K369838L290116a350057B805564
6243F810834L466911K590513J460656J88085j101513k280315l231391l860594
6235D043186f2833l944070l391480k503150j366041q9851J204490K397240L381836
6226d373859b98691D126406M414476M061318L415284K550936J558663N34377m30838
6217B0230622j259931j896968k311366k498962k479925k293945j993452j635773
6209C860300j275300r56648p09640C72021i0793m38147m42511m41356m02120l00169
6199b115096j23385J25185M27040P50334A18156J293903J428504J425970J268985
6190E535518R58254N13540k7813o14797j188581j689566A421823h52471k296811
6181c149282k131989j800842j343096q12191k68464K28547O27727Q92868J007188
6172f749534R75219Q21834N88472L27083R2551o5359j09465k1007J96978N19240
6162c423988R00993a239593C61600J791463J802493J601468J180006N56751k23381
6153G070400j093288j970658A239456b158181l791463l899208l699241l200175
6145a6748268k439958j481592m06036O96826J737988K638723L338402L799856
6137h864059M011671h65110B895962L382210K907003K390996J881834J413850
6129A4871855J005065O56937L56758Q2258j92367m89978q24600j197057j592881
6120A2675990j982848k326185k576019k686374D84873a868933j887342j242613
6112d998888m65548L77590J206348J934498E33664K773055K768011K446341J821528
6103A0342599R38402j30795j293512k446378l485943c95084m874397n105659m999636
6094a5374776m574733l878365k980893j967278r27532N2870R01492J565399K014935
6085b5168881K244512K270524K126847J858691J515686J145224P86894M68707
6077a2751796K05485n20j57065k77957l78400m70525n59777o42847p07447p34004
6067a6474853o99045n79725l58791k9210M02373R13930J468532K017107K503236
6058a0836446K869480L064449a852794I52878K335388J666060Q47551n1823r51903
6049D798151j768942F04606b250006l016036k892263k495115j863718j060290
6041a3577428j63278P41334J569558K248617K724765K968791e09094B269116K414424
6032D683540J949748J454310R96631O34809M09131L37026M11021N99903Q52997
6023A2329116J107007J294569J353494J235485R13289L85343l22697j159767k054383
6014A5081456k922253l675620m233242b79509m523920m202861l584986k717998
6006a5309274j674206n42956N78771J596559K428335L012627L314368c268169
5997a93274B410197J978815J276357N72425o4457n80918r43822j142585j188511
5988B317501j111349B52522e11055n87611m63445m14707m47804n51395o98551
5979c674568q51229r66469j003393r30051p29137m01743L1387N31365J045258
5970f948580J512308J871496a495302E72531J848778J418387Q07048O6927p33266
5961C980405j515602B63314b457108l017901l061540k844681k387066j732541
5953a5500837r44082r6764P30467J463234K039430K415286K569190K502909K240170
5944b580997g58091E47622P49235K13305k49354n98202a45643q71444p96093o04573
5934b417753l29712j0395L13041O03092Q28627d5724I61523R46506P92947N62316
5924C263292K76256l9953l59624o56713r07566D83332g12895j210106j131303
5915c054304r63790p18175m11273o5209K93985O38326R40251J175276h40233E37639
5904A871744J203194J005024P67708N24481L09621J53797P9484R7052K02203L75245
5894F589553N82508P79944R18615R51480Q40661N64196J21264m64975j147588
5885I735658j859368k519447B314442a034407l376201l088163k481622j589813
5877a1570206m81055P47035J977410L086518b281545B219116M653054M399338
5869A1271508L768838K834458J704741N11182o07770j524007k136168k382961
5861A3439821k251556j779834j051974j87837O72633J388045J834811J924446
5853A3988555J616580R25790p8776j281161k532834l671692D423089e98978n028065
5844e627043m539556l597041k299552p93040P47695K141228L223020L867109b874145
5834G51546K796673J636791L10657r94737k094684d25133l095260k840144k090103
5825h450640r37051M70707J947547L294726F51825M894953M909460M349410L267222
5816A8072870J781928O3946j686996l267771m498215E221382b14184n072883m228165
5807i515232l033435j662349l06133Q52662J665072K035849J936103J406701N51985
5798f068777m75349j496118k330294k822850k866292k416699j501073k14881J289919
5789a8902414K824810M189953N201337i70171D682736N003665L836395K287349
5781A5810145N44182j177912k663956l727192m233627D31764b970170k173705
5773e143875n95423J126501a847142B257262M961591N215563M819658L808151
5765B1062225K291995M44958j517980l367202m886567n899524A837899d177667
5756i288951l684156j898866M3045J927912L555354d584396H51192N532927N074930
5747A1459049M144536K873124J422479l5913j341609k363353l012603l250964
5739I894746l091053k591067j844182r64495p1485P24870J336553J706111J810684
5730F910682J661327J298196P82607J87379m13121r51826j375677j649548j757224
5721D692795j699758j491841C44063c79416k18900b67274F36923J481196K043604
5712D161723K571554L041557L425271L689736L799384L719721L422290K890180
5704C0721416K123208J141818j1139j271315k556700l774176m828201n630645
5696A5914266o110599C580766b373454n325804m392380l237236j963901o85376
5688a7978151M87827J459451K157599K542009K607584K383789J930020J327552
5680c082320O69101M7294m56484p81546q94510p92317n01395p3153M23499R11612
5670d530219J316397J574839D614J504211J165077O60068M4048o14017j239453
5661A524548b36131k117338k266808k188409j884906j381294p21169L8713Q34950
5652i922392J604206K289331K844220E2326L451093L485005L349845L066355K661226
5643A6065850K163537J601768J001739L85621k27987q23153j385196j899196k348819
5634A4534164k715816k980412l122638B590807c81832k661294k194755j589209
5626f827090q73357q7653P17980J487775K164850g20963B318748L165627L063459
5617H547834K742291K231097J576650Q39499Q8338o06666j180937j582174j775946
5608A0879986j749572j513823j102198n67817K1816N91664J066934J380983J482527
5599A0490500J341387R52157L35366m63985j380428k334148l238648A693052b877834
5589g744316m861610m548419l946386l100511k077082r57468J69434J215318K100353
5580b3750687K760084L150710L252305L069754K631431J985848J196699L36863
5572e366993n18044j295946j933873k382410k608735k598148k354105j896927
5564b0955181j261428m93738L52339J219191K049209K788389L389539L815039
5556i096641M039014a008732B837529L446898K879990K186429J416202O24959
5548A3392007j30092p94692j322115j677386j840710j809678j599928j244039
5540B973367p88653k89994J91818N99111Q82947J008668R59970P41006L76147
5531F654387r2624o10469j116076j548932A429694e71354j963393j746102j372699
5522e653548q84737l36499K11898P02129J084972J326358J411321g92780C60005
5512A233011N54090K45732q128j75663k41648k09386r9758N2440K04420L12639
5502A867749L40332K64151P8882k00553n40214q91297b77812j400167j453464
5493c131443j325934j009560n21971R4300P76175J447546a641878H06595K651250
5484C457845K608084K320023J819276J165847M40288k66519q65224j279887j458258
5475G941475j378986j054743n30734J21200Q12169J448169J942734K228545K266345
5466A3796174K049932J606477R92154K83703m32874j074808j574436j888712k004913
5457A1752697j941677j745221j481217j223590j041845r88932j091471H94759
5448h13366k117184k485437k721039k740692k483932j924866j079470p175J193825
5439a5179336K397153L463509M258662c88223D243379M117959L167155J869957
5431A3398450L62366j189897k611281l738169A781816b852746m302401l486640
5423a0641787k289815q60938O23213J980537L046849L696892e84721B945845K765268
5414E711113J678423M25045q19498j882758B494291d29382k756363k136592j145680
5405f468017Q5271J392922b386416A168874M120679M221768L840617L020964J861931
5396A8234833N04545q87015k146924l129031l725232l878488A383778a528450
5387c479528q40380K71044J240096h61126A451829K302614J932809J265058L96104
5378G348414n56373j470153k234653C22534b687620k960225k642191k114993j458835
5369a1863864p62535j10498M28762Q10985J020385J069308R93675Q45099O81080
5360f887603N54907N06830N57862P07092R32769J196899i78782F73214J756148
5351B429362J740698J601019J353147J031373O82706L59134J08907l1713m4911
5342I229722O5105K72044N31062P85423R75304J047430R64061P09923K95974k40686
5332A4635362q40817j430521j931153k270309k392306k266647A610393C06985
5323b49973A5172J070744J768188K278076K543396K536701K263356J760401J091227
5314A5327261L36821m15195j082219j597396j917988k030236j950147j720109
5306D950792j401914j067197p86643o19512D70623b85355j057889j469661j929754
5297d742659k364485k698154k863503k811096k516399j983649j246066l62409
5289b1588420N89611J522189K347417K987143L381547L495421L321526a062812
5280A156381J402633N09208l78868j183527c32355k293450k520798k513955k288116
5271i948674j877237j329844p03895o1215N37992J040127J402382J595866J607603
5262g736895J441287J116839O68777J43509m04355r16460j335681j611315j704033
5253a0338327j590194j265016p44194o3644P22818J547773K336241L012904b871794
5243I02109L772834L499418K972961K237837J359126M15731n08254j332952j991696
5234A1327114k438508k653040k642330A154167i42420j681168j262721r05054
5226d791363o57096n46284n75082p21148r41154j177788j368908j457600j401630
5217a3638053j180883q01642k96970K77006Q48458J339950J679866J813541J712472
5208h246255J380200Q53863K01019m87998j111307j568891j776381j677384j252588
5199a3685722n24331M44141J554771K685502L704478a335254C590260M953667
5191H543927M544405L719277K545419J128156m00940j899000l227940m269632
5183A0683672m938346E56363d463740m471961l619333k560949j406634k64068
5175a6786685P73166J634740K278976K694026K894999K917780g82336A842848
5166D250452K192190J997248J824269J660097J481582J261749R76429O10159J60432
5157A6414607l60408r25841j498278k034009k489172k825749l016621B15609b709590
5147e371891k288215j837535j346300q47150l65559Q2218M89253Q56168J187935
5138i441076J489935J764139K006231a976412C63479K390175K332950K151647
5130G238251J840676J409607Q85374L11799k53823p46845j103446j269763j210646
5121G101184r16676m08190K64544J025324J779995K427473K872546L038678K879081
5112B0063959K384397J585755N52590o14715j796534k868599l717599m255664
5104A1333590m431719B663744a047833k928052j992476j024426j41856N54878
5096f579765R96485J153740J040731P11863K53017k31897o37055q71168q71860
5087e035909o15809j23142N44701J293381a927537F48592K893062K890121K540228
5078H972003J864946R33352j46078j239511k205900k916685A987852a238822k776038
5069d014860j979846r44354J88916J261904K121428g26441B009238K380656J609717
5060E999611N14916p65460k064707D74753c568683m447014m354866l764352k736468
5051a8871383j388196J22556J617394K920537L881418M393800b914996A025644
5042D088550J898496O02127o60565j735014A695864a175772k834822k421570j715791
5033h147955q37853P3210Q79567J463785J744722J688003J309820O73625j19598
5024a272674r46017j676470k194346k411385k279336j796007j005057J0223J138122
5015a2432947K253045L231332b982342A397776M432564M123361L490520K603787
5007A6048008J554845M45720o22987j562521k303865k802415l039235l019233
4999D698317A931328c89890j728912j040052l03609M34943J134604a34167B140357
4989D792769K866516K895929K727163K357372J797695J075951K37818o54212j524518
4980A6572483k290671k871914l198893l223360B061226b62695j467896m43374
4972b173965O39428A22346K486449L022048L188352K951907K327409J377986K09140
4963A5685637j043181k228991l203198l844534A293742b562650l225442k261291
4955h049383j090815J30340J237918K080793K541382e97812A506717J252947J06646
4946B866310j183073g59359l498779m201908m445797m182234l427849k262409
4938b2778335q18766P34234K213551L445552M288239M649094c770215I1079K834113
4929B925192J549445J68241j144238A258343a750335l387881l372203l009829
4921a1520248k393400j644579q94957k66094J48376K96037J72539j78933o75325
4912a6956584j207337j656879j915759j902821j576995r44351n8149R88120K073652
4903b3157103L067304L846135M312824M409410c396004A03209K612339J577899
4895D293447N24497m21780j154761j602444i7129j572878j171849o23779l6579
4886c502214M81576Q38878R73782c43835A86417L1367c25942j090671j505893
4877b922506j702957j626400j261028o35244J82099J090878J973596b189601A014160
4867D391700L202983K695485J914261R54271o6841j024903j806133k322379k522529
4858E415915k398489A032471c20644n99296J69695A02070J366767J662082J724227
4849D855146J576370J273392Q91549N14980K21155O7605Q1984K57085N51614Q96657
4839A1187537J206925J395048J386742J134490O27509j03609r88547j925143k792547
4830A1128405l467907C816289c0440l445615k662679j571206k88577J037479K247291
4821d713747a523868B219173L830149L431266K587010J394483m300j440033k737533
4812I280215l738129A222015c192230m013138l171779k000619o51208P03408J890981
4803a0434585K762143L209390a282561A402108J790776O17793o80981A191701
4794a801328l713556m011193l852277l261215k316396j139270J21821J310902
4786a8662512K284194K927967L172224K998578K441502J582984N41434n43577
4778c257206j528765k284506k710063k744889k374786j632463n92619O37542J931062
4769a4556693L155568M187483b289142C005916N263987M834022M043382K960040
4761B0107347J673606K85941j098403k380964l476583m318634m862085H45714
4752d139643m583862l916119l031655j989849q56380L00207J411832K414117L249580
4743a1141772L870701c028273A318179M179254L756563L111046K290812J356160
4735A6012014L75056n82293j449302k168717k697531l010583l102337C89638b304973
4725d575306j765798j234785p26940k82632P0836L21165M71026N36093N41487
4716f644854N17158M92888M93582N35514O23993P52759R05105J056561h8621A154739
4705B381927J114972R02226N96125K14897k14244o58296j082344j453533E7075
4695a879731k020880j997682j876765j674230j409831j103909p74558m35529r5076
4686a3268191K44008N83298R26692J277848J637452K000838K356349a556933A403128
4676D554427L225820L153102K909034K480015J866372J084621J68201q33540j858132
4667A6749920k834391l688113m348562A123720c739853m651079m119722l297777
4659a5808431k238666j017524K74452J537428K671511L585739M206589b303712
4650B098739L971509L237121K271964J170047L7819j016198j892246k509485k814402
4641D554868A768385f72105j824976j017102j14278P76553a301109H16819K411688
4632C228507K397584K076730J485572O91449k15489j133065j959284k604429I65973
4622b148361k940346k510946j886179j146350l81033L22945Q92964J279922J464169
4613g053215J457207J298914J050666P85312N75389M81279N41025a00106A024689
4603B596839K028903K406051K615149K582071K259479J636159P41768l53908j547328
4594A4965183k712588l716491D100683f71124m667979m115444l158237j889645
4586a4502429m42564J025467K350772L383291M005073c5256C753463K979726J815878
4577H549067M37210r90735k296915B373160a581314m110454l776752k994860j858535
4568a4321915n01564R19194K243254L325938M055318H4790M238279L712109K865987
4559A0901165J812022O78842m05429j329246k010686k405831k511543k362534
4551B366760C43380a233442j110221p02113m10913k67240k70923l92951n81908
4542d969711p73803r03678r17196p80388m86062n5897M62109J000472J482302
4533e941852J833130J992719a90970A433906J120120M69099k46525r32521C49109
4523a504379j952914j771779j326342o69497J15343R24644J648100K183149I5056
4513B491515K017659J345379M50994n64119j580825A683804a457783l490245l473834
4504h421862l085500k361405j376457k35421R39416K022500K899389L479569b433573
4494A128158L068873K286925J304116K26952q32050j766780k488692g993l076553
4485c084546k914561k483536j843585j073171k59921N08983J155797J619684J862018
4476f512838J869144J652505J246282P02979Q7473n29825j080023j502399j750085
4467e816787j794343j627121j261693p31373q6389O10830J291577J887517K337501
4458e190281K593907C1500K432876K026145J447679P56783K6313o64830j240319
4449D816147j635143A377460c47644j408189q90145k34017M77995J153760D53888
4439B498137K123933J915678J429255P10063j64970j095630j969986k677891c56257
4429c600682l007626k427863j560774m98713O39537J722674K622711b879959E90889
4419C900524K761232J885919P83110m20685j587383k584391A437335b224580l636347
4410e860927l241154k537923j624202o20117L47836J163660J737069K015060J988202
4401f632496J690882J195433O01009J8753m44681p02922p02800m32535P5971P51110
4391d582276J491293i11838A786331K949654K867366K428057J656180O22142n65784
4382A1743946j774865k864856C397974g99409m278048l937808l217818k205901
4374a4438984j025485J80150J266220K104987K602035K708147K425231J805536
4366b372163R44319l3052r87801j786036k316206k503462k319052j783620r64027
4357a4121100L5759J088437K059944K826600L290607a427810A687372K490519
4349D177891J589012N12850o17958j680629A416778a766342l484344l453544l113548
4340a1817778k519292j748932q92699m1104P25896J347373J786597K032457K097236
4331i030246K011406J816457J557029J273608R96910f30117a08606B12119J29124
4322C41243o7716f256n08061p41814r58402j125706j206910j166928r79456o33480
4312g327013j38123M75141J153475J826983a593549A246897L030329K935569K534216
4303I747011J837550Q91329k27217j416476k560894l543598D67989d160780m604583
4294h765363m181450l395739k322633j068347K41342J474898K509581L245045
4286a2262666L614366L591254a864446F11637J533181M78391n64013E85019a565120
4276d084201k545075k232550j625117q00006J41176J084267J915543K534442b746938
4266A14996K519281J866616R67521q7964j193112A951537a158530l726728m021948
4257h907206l962999l550653k818185j827160o60649N85361J811377K923636L842275
4248a2564203M507635c172313A789921M756102M301412L649668K862195K003665
4240A9362963J136030L13397m21687j040299j527535j881401k110501k230988
4232A1599979k263222k228619k147033k034977A021387g43038j618672j469858
4224c831568j319431j169074j021464q80437p50576o36256n40401m63196m01070
4215a1013473l46241k86995k08813r6260O4557K83306N62919Q97690J272375J662542
4205g208393K036316K357388b25647B473052K662428K468754K121219J639206
4197A1364659J056794M19638k19833q08366j298275j653396j853816j898658j806410
4188C302337j612676C24176g94519r24307q24674q45731r92165j245388j564675
4179g191459j891550k156985k290590k230674j933872j383014n92087L92512J494839
4170a7782880K616209L645296M470412b058436C079012M865627M178304L119140
4162A5242083J771011K48205j315090k778751m011500D251209a132704n415865
4154f548569n011661m224318l141940j877123n53964P05710J795239K633645L172596
4145a3050385L399160L334204L026892g43945A226672J377762Q34763L91143P4652
4136C904992j09481j76060j54785q3425m34O1817Q2208N3665j6686j09948j99945
4125C251918k58977k63818k00959p0191J14075L24034N22074O66242P16727O42397
4115E443522M26354O9642m07523r67242j557981H86102a709873k931772l089698
4106g731343l049924k813422k401446j852312j215962n47147J01818O87598J180791
4097a7641349J568561J854593K056463K200841K317352K432064K561688E9658
4088B922972K997022L073708L051788K892158K565682K059802J383178N67563
4080B1513873l33561j249567k100035k803967l289742l504427l421234A767319
4071f40847j577575o38098L11849J172404D81390K286003K428067K271299J840630
4062I307389J191145M01235m36898j228174j885620k340100B461396c1777k191542
4053b223319j683768j031225l07356M11552J055343J567657b99749A771515K053807
4044C825322J884200J601367J251627Q82045N34335K40142J8203j26363k00740
4035I910138k21424k10172j89582j79031j91543k32083k97371l77232m57099n21247
4025G033354n56139n53336n11467m36949l43323k49332j76021j43351j66811k54606
4015C642019m05821o09882q47406F86573f28504j486212j580275j579099j474270
4006f748360j268393r75008o17210k25145J67250N25855Q19898J024960J125200
3997f170953J114548R96861P85083M99631J66230j86490n29384q34951j079107
3988e238532j242514j311479j278458j142277r08126n87381j97271K39656O96322
3979a0970060J142256J545136J872732K095229b126937F062J923364J562810J067649
3970D559885M66307k02142q90636j547855B62904b305904k849526k941242k836184
3961a0932856k543397k088026j508882q54539j78363M66935J034629J488518J806170
3952a3309811J980470K019301J943444J782963J572585J346701J134620e72957
3943B49336P28399O61531O00199N19069L93751K05592n4186l81666p59120A007014
3932e24189j838637k031730k070068j925063j584691j056545l68746M31496J281604
3923i686569K109296K839605a335157B405197L814188L608344L132707K422368
3915A5382804J534682N43984m65472j407659k203134k786764l113987l165005
3907D319449A373002a117368j850722j097620l10118M31837J055382a386777C45412
3897B075926J504839J085607N21841j24526p85462j394085I92603a240152k390556
3888c630708k357621k146243j785935j319229p96211k68484K16755O21781R22026
3879a0543869J107929J184837J171010J094035R86202Q79420Q00397P66719P84320
3870a769000Q46703A3685J025597J084338J081099R89752P93414M87562Q1539
3861E556986m01778r28118j455496H32632a503152k610413k738535k709719k528314
3852a2090133k212480j791541j302013p82909k70927K03757O20570R70071J253754
3843a5401851J482217J671998J841600K007326K179574K360172a317784A387585
3834D215895K881804K838146K674598K377406J944764J388247P32504J3189p26569
3825A8339984j440711k085156k622419l025311l279216B504464h41976l190593
3817d032569k941239k626316k271749j898384j520131j143604p69210l93453j1997
3808a7608652L77106P70643J158482J523197J841256K085665K229690K251109
3800e371504K136321a351602A53219J025621M83233p7169o07541h5286j405558
3791a490844j612108j673741j598161j407756j135965q22104n05464k19564J2554
3782a0453153J81192K90606L57204M05610M63238N54251O93940Q84543J113285
3773e509284J353129J566294h79754H64634J639214J381784R81186M70043r7476
3764E239385o51320j114335j413070E71526g37896q73584k17366N88957B07390
3754B450262K858853L192097L168438K754962J967516Q72063m20649j766800l006308
3745A2070434l982747C523845a135933m236796l324009k012279m44973J198482
3737i955508K724303c282596A438521M945103M590887L700915K385519Q09752
3729A7870697q27187k317334l470889m141150B870044h99911k785132j424027
3721e109070J28180J659682c61267C486414M195236L945959L122358J823771K13815
3712A6787553j500746l096983m365057B688908b614464m838764l794336k296801
3704a3544365n30807J285115K926957M194205g33329D334715M586917L565359
3696A2486991K143893N11176j121231k546655l589953C754727c56903l555897
3688c912800k550430j238460K02117J583174K731373C25404L837639L692623L117343
3679A0973009K207667J097914n9243j114547j942547k457756k624474k459112
3671C620911A595981A75725e86335j67471K64030b4668C85109J16036A42899g82521
3660b265040j927757k176665k175345j908958j404227p25627L4091P67597J368836
3651a0413095J748707J848249J647462J168476M72708l47580j182022j917348
3643f974443k452859k713977k662032k298964j666414q39458Q3995R96547J795457
3634a6732148K395623K739625K803599K598303K165497J570384Q91425K09128
3626a358564m04508q94423j227710j395118j408906j297688j099362q53444n94118
3617a0533841l45169j17539R0229K88918M93644P18012R68583J240791J517159
3608e679213J768270a954535H6844J987525J770753J384329Q42348J80147n48619
3599E703327j277927j937606B5176b776841k926170k831093k539130k095804j563205
3590a4732243j010888n05629j01601J67482K93014K92151K04303Q3970r012k0279
3580a5338732Q8923L33933P02583J155595J631598K056174K353638K459825b222571
3570b55337A132596O59850j23881H16365e94611j699308j644985j216858m32172
3561e587934O42389J896372A38234M357895N254348N746943N746619N217408M182305
3552C0643752K721795R65157r24334k768433m394681n656189o447937o717520
3544G421610I52519d807648m691954l394689k010158o73837N00902J434486K087332
3535a1555566K460003K587683K530130a618852E25109J941859J787141J688397
3527E942506J629238J573934J476559J291992R86814N48190j0866o50825j309809
3518A1477733j912064k379416k643984A882223e30937j924922j252424m82291
3510d190574K80044R24387J351166a49015A141971P71814k1766H91027a157852
3500d192852l832337m333826m466350m200193l552731k585837j397454j08586
3492b8670166J152439K266179L136523L701396L938375L864611L531293L013719
3484d065631a667021A03662J200541P35662L95719J72772L6071n9540j63120l16916
3474B104851n47246F99040e32638j626455j988512k258831k384598k329453k081359
3465a3201846j656663j099525m76656J31952O44926R92204J126518J031762P26840
3456a1780488K64186k76944q01574j212886j426852j385370j065882m85907K98302
3447a7873415J198899K108409K914818L517528L841814d42376C102305K972174
3439F074479K211195J362881N34909j74911o93446r83186j047541r29621p04615
3430E650144m66865l13622l27974n63667j034243A235409a276805l338822m063065
3421h678692m560225m725316m490277l836332k799510j468293K6461J528029K874460
3412b6129695L920394M556868M726191M429642L726800b043247d72179e7076n96295
3403f53371j348325j772141j853319j631833j193535o54477j40540K34405L88328
3394h624808K85628n5970n67456j139415j640163j938419j926955j543395p84664
3385a7935617K87520J551435K840152L964501d550983D69839M714857L811703
3377H996399K384618N86361j368042l228622B626456c071803n940617n412064
3369a4424484m156146k317118j23442K141216M175731N702895b492739C980500
3360I570969L970654J827833n48147k830712m701568A393690d843798n670040
3352a0513838m261240k197563K41070K719539M893968b658226D536701O990913
3344A1527614N868984L977165J569549j029652l472162n435183F339042f84839
3335g172121n167992l287324j143636R32824K629799L700209L999505b001205
3326C30193O88764a07229k789068l997031m518020m229893l143138j403248P28173
3317a9459454K911246M779383e771800E43084N614093L931960J464720j454250
3309A0099607m398441a207683q562840r041243q183556o022379k790856J099381
3301c4709176N108161Q638815i839118B268208J1327795Q763539M658299m93513
3293B6524328n996750I491033e289932j6492606j5634552j1956365n547731L148721
3285e1772465J3368959a4302269A9891970M2487265M7946881M9793232M7600046
3278B07719394M1355430L1475163J8766017M342825j0491192k4386728l6096328
3271B32684581m4610253m9264041m9805103D2594380B937869b7500411j9860414
3264d7360825r102201P19421Q674510J4117243a6207369D02632J4094239R835208
3256B4332079M630864o73405n297088q622180D106217f001324q305023n238527
3248a9544874j452569K431871N809722d578264D623113Q757235O941027M046380
3240B4367755N15442l129705o364666F650718c283591r814430q431255o016172
3232b7545448k940937L39542L354796N686825P028852f849723e52781C868057
3223E781798q23408A594245c724763o391531o419852n398258l475966r33718J858120
3214b4485968M493638O589837e561452B500252P211719N400985K872910l0485
3206A7955381k916682n397067B501671e413287p622634o305798m141210j413287
3198b4896216J526115M306005O585818d378853D308912Q315980P073234N155848
3190B4853974K836628M25122j775393l508153m594943m955833m614407l688417
3182D978578k367772q83578N27058J655246K348771K530990K207899J462896M40544
3173A2900632o77848j702912k465890k843079B438193A76042a208689k67158e45496
3163A492464K900580L399134L465830L091503K324377J260834K9932j225736k369914
3154A4369004l290342l911784B964040a211880l880936l394011k803390k194851
3146a3485068j638967j182074q42128o09756m53950l31132j95804j0828K44472
3137a8505235N69736R43245J325771J667842J919039K037644J998867J800195
3129f242896J462841J029011N55375J03835k68884n21012o33200o12308m90760
3120e617998l21422j68714r7312j60227l88224p82374j311134j912596k501850
3111a3261851k982522l260895l260562k935416k278918j328122j61647J108366
3103b8361567K349359L424821M211908M617766M592270M135361a732221D43396
3094A341080l89876e91183k434678k976459l122949k879343k298624j473125n21104
3085a6297465M29727J259415J871350K204121K238148J996314J538736R52565
3077c807089L38449k04347n92034p67614p07976m25884L3187N98720J186061J708844
3067b639683e48550A728981K239932J980108J527989R36114K71280l95234r97345
3058G291825j482346j816470j987221C435a882517j672468j399836j102908q08285
3049f866014n31310k75648l5298K01447M46969P09238R87726J271113J537319
3040b554458g98517A094225J915460J799942J535550J128823O04663M737o16852
3031G466548j200017j686385k027067C63725a797513j953104j596218j138266
3023f485101o36562j49945K69388N82899P70475Q32255P87238O68934N18790L78437
3013b463192K82085K50267K86026L74177M83834b13000C87049N24000L20330j7078
3003A214301m72055b64344j564866k080385k485211k719960k742994k537415k114665
2994a6509840j514113p98519m5975O60590J244827J647634J835467J805016J583507
2985a0091406J224518P99866L88758O5789j10405j06118Q2228M27481Q75917J355578
2975e087794J787560a201661A031186K161526J888049J448605R07444L47660j41280
2966G643190m77437n99649m78100j20514M27091J085391J751934K315161K670348
2957A4217415K735207K462856J850238R40637j80216j394048k564713l555678
2949A4511698m247938m555909A268781b638950l022116j884804o27642O05161
2941g568351J675394K468166e18959B437742K637393K008679J165516K22820p00912
2932G771238j499773k094085A737722g93723k401270k110145j736510j362324
2924h403972j059193q76694q34690r20779j093196j288690j434044j459414j311313
2915a8681985r63163m21675K72049J046967J811526K466740K920964L104146K979389
2906e465042K549980a054314f0917d547q29384j546749j998560k121191j893625
2897h394056j340675n29871M37588J440532K354229b965087E30731L595326L364586
2888G490643K845100K113833J271174M25861l20905q89801j234061j344997j251564
2879I105283j014167p13698m37548k64784k52770m27345p78053j259211j796677
2870B161030a38263k673293k837458k736715k352010j704937q56271J01444J056264
2861a2141239J892402K506703K823599b112196C50544J844609J040790J64829
2853C400772o60988j322957c15232j836553j629157j147776m69653L00200J044626
2844d053545J651659c70851A756594J928525J466400Q12563O6802o58153j253981
2835D118750j633509G40934h36108j167307n90530M9301O35505h52320C72715
2825A462230O46282n9744r39900g64814k725820l366065l688857l629957l177482
2816a7352995k375636j320321j47110R86920J925032K533318K720624K453033
2808a0577135J760684P35794m78074j704224k756150l462890l692957l373562
2800b3548514k502397j150272N45929K399186M195163N718996O782556c10746
2791F737926O192293M766395K924888Q69836j173365k983563m370655n198199
2783G765556B366542b615347m028725k682620j128666M29991J797631K809734
2775e418002b065923A306990K886908J970678P50807o13813j952844A242976b697776
2765g066987m353831l910086l101040k026693q09578M21273J545828K466076L115097
2756a3719941L461400L508410L289694e99411A691338J649943J003806M05307
2748D750394j08320n16153q11644r98946j088467A34195h88724q87956o94098
2739b470778m46966j54151J71967N12078Q39198d28858H88019J394779J324904
2730C607702J091590O96959J63790m64340j126050j748165c2682k574076k654395
2721e261153k466745k013786j331392m86539M29133J309412K046134K542728b505291
2711E5578K047320J230733J93201r54544D86336b587397l805267m196387m201733
2702a4790784l820324l095610k109993r74515J84934J243129K090702K647116
2694a8625345K869757K758059K352214J726748R79919K20374m47097r34869j183151
2685a0283391j166693q96814m18640J95945Q58505J476021J962956K251860K301205
2676c719046a619468D6383J045565L04169m81758c19730j882193k370333k662579
2667g234835k744829k623932k324361j883134j343934p51329j45960M38752R78069
2658a7635493J455634J861768K190919K438965K600997K670165a779249G15634
2649B950248J855477J364272P78395J26748n51053j207311j790550A275275a270989
2639c918319k542398k239540j766714j169322n05522J60192P64303J251542J581141
2630h384637J731229J700797J508971J191740P96598L75901k0130l49758n84574
2621b033863p12171p36343o74870n55309m09503k67718j53344p9038m4893l8962
2611e706014m0029k2190L9494J63242L55638O08467Q97914J186412a090052D79715
2600B048942J392025J023379M71460k31106j029077A825977g84258l228115l630590
2591g642963l764471l603502l152682k448830j557169n64266M31844J333172K053443
2582a8915424K528462K723809K638843K306477J788689J168331N38251j0899m02596
2573e636057n84582n35894k69853J67409P02725J245280J698445a239939G57315
2563B488490J168837L42762o78840A522435a379009l865262m576803m943738m905812
2554a9670624m442379l575636k369217r22288O40197K179979L559397M655173
2546a9945398N370669N645317c469078A371063L849502K586664J173375k57234
2538H723370j573607k658298A072624b723373l768600l354683k608831j616145
2530a4071632m83444O71403J730965K589495L162892c003867B65938K798496K032233
2521E096667J049890m8210j150014k142572a17191l408243l543669l308081k716249
2512a3093433j817712o92301N57324J815374K963979L894509a854221B919721
2503G555452M113535L252992K130619Q46157m87323j754539k849183l684005m198784
2494D924921E59572c629650l707739k984959k103993j157649k38479N70677J204609
2485a2047183J621321J804757J764489J532599J158224P00586K21377k22515n85099
2476d051444q35544r60183r62223q59329o79602m56607k24180j1781J59036K76598
2466h605259L39397L54768L36293L00459K63147K36551K27037K34265K51678K68251
2456e793413K71163K48895J94206J06429p364j32589k48824l32718l61747l18226
2446f374188j92945J2194K83051N93913R10009J191623J399320f77439G92645
2436B096416J011135O20189J74015k73925o66227r48929I33757i6576p99082m04724
2426a300382J10618e03413G46713J726387K045745K154020K019731J639052J037492
2417A1369140K67961n94641j461762k241472k849496A270156b041749l118529
2409e160278k664918k007514j227399m20830L12251Q80371J211833J263785J027901
2400f784798N31935j63095r69810j784644k500095l017580l259345l177977k762360
2391b3887769k039354j070972N2593J223280K327538L259308L932052M288398
2383a1914926M306267c607860a85970B461704J774829R06850J41782m39137p80588
2374D065440q58969o84268k97883K33285Q25626J389400J839751K106841K143887
2365A0763110J932191J482666Q33758M6171q04877j638832k379221k962192l343119
2356C929655D29052c008394l178690k767040k256469j704858j166690o86747k95566
2347a5064454p159J80841K84753L30639L48972L69034M13871M96502O17964P67363
2337a1261674R23957J060872J149901J166642J095188R31668O86060L81967N4321
2328c811098k54713n01126o45040o56440n19908k37651J69615O64142J194829
2319d597390J702750g66793A649196K525533K432558K134126J649130J016598
2311A1407141K91651m60423j171296j777044k225042k479514A060433a307241
2302c340783j565137j015798m43074R8196N62214R17219J148506J259161a111071
2292I6882J116454J033443R92934J017896J116229J278820J479975J680224J831220
2283A1644077J882150J786886J511017J037835L72518m56109j396561k378428
2275A4003385l318566m129128A829077c211866n023579m653733l941943k930535
2267a9761656j690824l17264J080905K389722L501237M323847M791121h14671
2258C740667L887401K930705J776204N30485o94714j793361k675241l274277H73644
2248b637555l172800k594023j850439j029438k20507M94369J049148J400136J529688
2239g031421J446882J185169P97348L48521r2151m59869p01864p83435o91679
2230e982499m36589m9394M21535R16743J372903J730371h6774A882777J805788
2221C688565J457340R52830L37676l31023r90763j580316A488262h58945k459649
2212c318594k377633k113649j696384j167141n75262K6952N89186J067474J427525
2203h137526J646835J715473J635659J420349f28104D7526K05231c4739p70619
2194h05358j214368j592245j881773k065080k129376k067463j878259j567323
2186a5201245j147256o37803o5525N37143J133519J684962K153708K506043K715442
2177f321012K765369i04339A477369J977713J471446R03120L17136k42366p36004
2168E168414j133141j414868A044837e78003j575785j461804j312394j158416
2160f086402j025536r30445q78421q62610q65152q60091q17647p09356n13306
2151a3548966k18760J70546O34971J139714J637757K074743K395249K549701f63974
2141A566523J741045J059075K32935o70947j574233c9996l053166l484755l642857
2132a0220774l505706l078554k393324j505500m88613N73031J592545K488692
2124a6538203L193258L656839L852502b058542A391448K910222K211368J415947
2116G928985N89317k06066r15513j495733j917041A819810d15831k142604j906361
2107d464796j556040j125965o53200j75294K71745O55255R47610J127800J182902
2098c789983J109376R14020O14399K38522j76414n86331r43611j201284j317778
2089e139084j261730j016319n82531J9167P49150J551130K356747b31530C452923
2079G524652M208226M071293L664793L019905K192861J259719L08678n69299j290471
2070B4390357j787785k018665j970178j660881j139085m77659K34055R00290J429720
2061A7900169J745832J795632J555609J034312K71252o67728j697973k725530
2053A9211575l657473m411817m925850A054466d055953m788731m238093l517237
2045a6600014k694736j840716j019087k81194L38376Q23480J175527J410379J553601
2036a7134384J634868J682413J718291J755126J794738J828753J840977J811121
2028c068097a348904B00969J296157R61681N61430J20625l27959p47908I61269
2018d04104j512142j535315j439257j240764r66815o51024l29314l5405K03274
2009g910866L68688M53965M63600M12129L21542K17779J26889P1335O6978J21112
1999e286849K31768L88327N73298P64940R40356J078571a46390A037964J139558
1990B177522J033622Q77548O86685M78439K69878P5587r3953k33290l42119m24672
1980D505247m88497n42871n97070o58779p32829F64762b54230j022380j121783
1971b398393j206781j266622j291480j273561j207954j093167r31327p28065m92123
1962a1889473k34750L1074K91518N32873P42535R10002J027787J092219J104008
1953f392207J068507R95564Q98899P94982P01445O35136O09989e2712F59670Q36769
1943A496439R94732J165767J324162J441837J491892J452412J310076J063025
1935A1740342P22522L13004j29617n61395r35237j206708j340067j313733j124407
1926F164704p89147l44991J54075O42568J050875J313684J378464J212884Q10151
1917A1593267J91447n95002j478277k372140l184606C26092c906221m348034m158123
1908a2412378l677440k951755k052312j067183r0540P88787J497920J988307K240705
1899a5735889K266104K102470J807759J450235J097452Q05560O10489N22383N24185
1890d549252N74642O15442N81447M12619O5817m75338j194130k039142k927885
1881h935780l755439m407191m774048m768143m336845l473016k219919o69792
1873c7340173J044028K760690M309621N530340O291838O508983d740870E19158
1864D439388K275711N00399j219357k706508e24211m440731m543934m141193l307160
1855a6957229k162308q56355M51539J613169K509530L064560L252625L098894
1847e985575K672709a237788A84381Q27231L83573J51055J47958L49391O92383
1838B735972J086829J430674J626997J600474J310715P60433k844q91895j791132
1829G866223k572594B179267a139509l127819k533367j580757l64973R80159K298418
1820e467848b036746B200995M614782M509627L928136K934427J642989K04107
1812B0035063j215482k454068l375739l887617l951236A564341a303890j914232
1804c218122q69183J16032R05146J395150a40842A167648P82503N0475p57489
1795A243137b54930k035054k258665k101196j546894o34749N46091J867649L179553
1786c238195A090158N177110N622609N608035N129451M235421L019975J610019
1778C1492778J49023j220764k375182l221968l709791l831614l622200l150447
1770A0509835k507897j795209j108560n27879j08371J23717J70851N9914j65147
1761D651254m52315p50595j017746A205092a56560j428838j440674j415999j372601
1752e814672j321634j263936j188976j076741r02281o42135k81460J79510P21002
1743a1591323J302320J864149K334551K638059g45524A745944J972141J164381
1735D882466J22207j064610A661732a723791m252428m761473m826814m406694
1727a9971200l510879k201952n90053J178424K936923M517597N770614e289131
1718A594435O665960N972731M896659L566509K130222P36151m85107j435904k061797
1709B1579859k355605k354868k133290j787477j421036j128323r80249j014098
1701H404913j228819j586338k018603A131933a625939k895320k796696k441111
1693i759066j846071j066059j85437O93283J464102K032961K331641K328097a974932
1683d82879C10262M0845c00526j180000j463886j458496j161229o12246J11135
1674f065248R05432J655856a251067A357187K667887K420144J897930J174443
1666I517591L53103m46971j107861j529761j645500j430580r07294j42297P62083
1657C422513J681595K487020L061952L318948L211832K742396J960596R58203
1649B2845055j43252j208558k106757k728493l000434k894828k432968j682118
1641F647647p46410K47049J164910J884946K311707K388461K103925J493021O31697
1632A8126953l73329j398481k318915l023808l429346l487909I02720a673025
1623c378026o72608M15370J451473A54509K997784L377370L452735L227083K727658
1614A5937139K000317J103222J00679r42092j962720k903889l714175m348051
1606E270430E04718d428631m824391m421898l721987k737783j503108p4995J465928
1597b0246865L017900M463729N679620e39105F423728O857172O199165N007044
1589B4487109L350410J347449q43605l038207n043138o676179E798264b468687
1580a0544228p232081n821505l984352j901807K23991K192025L824284M984805
1572a8258868N593595N633796a880179B366763L062415J761696N10457n43943
1564G157388j289404j660900j645851A278651F26319J33898R51708J680611K219898
1555E612434K501040K495054K214088J707248J051517L39253l35822q92087j271023
1546A3421702j444303j416086j220394r14148n67080k50137k4176O9354J4374
1537G669106j77997m71964q13388j138896j386285j504606G13624e38868q93695
1528a432563m27423Q8435N88505a73057A129237J434743J401166J220662R34429
1519F120237N99094K77618K9116j00811q7755O7005L35962O68872R99884J257233
1509A0166455J374143J299312J005438M94516k00925j020863j884738k701351
1501H531987l380367A307833b728003l929893l531513k877227k029306j067329
1493a6163271p7794Q56727J667341K306167K750281L001853b574079D63306K905719
1484C369025K733160K553439K384928K228182K066968J872570J610642J249462
1476B0068376P68190J63692n45271j317365k091785k794882l349461l685467C465526
1466e3043k995722k221536j266116k22789Q02614J704530a861288I32929K881378
1457C814307K656719K161982J470609O77931j11537p97992j299528j562805j569711
1448E439975j339131r23554m01013J36509N96583Q99849R91630Q50025M89315
1439F740188m1794o66854j292379j821045G52543a508796k075949j614423r19270
1430f118438o5422Q49311J716921a184312A727623L095008K960943K526886J846123
1421A2156583J000732R0549p80030j515581k041670k313772k321905k090473E11022
1411f34407n90673r0410K88449N02441A2377M07415J55693j56901d1162o84187
1401g25349p74461o96689m44601m1180M63995J001381B74209J854315K024518
1392D153042J957552J638572J085190L46295n03315j371806k161475B363263g92456
1382d031302l015197k504023j756360q48787J25779J069045J888624K508244K875692
1373c688285g20727B069663K378274J787323J087957L56044l35921r26508j371032
1364E045800j644713A657978b2058j483527j190518q41182m73672j19984J96598
1355c934343M62349O72290Q28130R35454c5359I93596J021701R76955Q89691P53643
1345D635586N63708L18522K2670l11902o65652j012505j322161F64891a042880
1335b776524j629205j394751j043426o00395j00494M15371R04650J327801J652638
1326c244335a386579E48099J888420J736468J506321J231961R49693O93925M93392
1317I048279L68242L28312L72698M90571O63054Q65790J071860J254625J390158
1308A5853589J459045J447405J347166J155738Q75249N11650P3870m26745r76663
1299B1320304j560047k158402k750186l310619l811894C505143a011149m659552
1291e670701m628801m406201l983896l366386k572006j633263n95774M84162J543298
1282b4829568K516133L340188L961323M338561M447929a940579A924316L222650
1274E146966K408973J486736N25554m04020j236269j915504k400235I46276a759895
1264d292150k171169j662428j053990l97729K55082Q57901J372278J770247K035574
1255c286384a122500A039245K044892J835842J561184J248827R25463O14467L34374
1246I604294R8026q7621k21067l05380l46937l54051l35583k99765k53307k00893
1236G297716j45075q6529k4613M1913J14123J92259K75270L60653M44596N22435
1226H992748N89315O40961O74395O88480O84132O64170O32732N94386N52989N10536
1216A5224844M66190M15703L51423K62979J38659l2632k59033n43356q81004j258606
1206A3885167j653652k035408k367133k609545B494227a89142k464763k065530
1198d719435j499864q00722j8353P83427J532977K158091C0113K791180K722114
1189E543407K385859J809948J049045J80350p03923j506249k134642k513424A517783
1179h36800j817593j034735q9152R14593a001756A639445L156606L339628L157541
1170A1293220K617924J768548O92610n00204j685824k739603l550253C864213
1161b70738l848264l202684k265324j131512Q6622J273132K321246L144725b06550
1151C715340L861290L543625L030166K394498J711856J049060M56426l7294m26357
1142A9298610p25780r65880j184535j418414j694602k023913k397017k784018
1134F104451B966811d32839l509626l414823l079718k493757j676128o76673M27349
1125a4856215J538424K549088L354113c551491D60323L770846L150370K200397
1117I581936J006353l19481j649709k855313A944493b504368m684754m506662
1109a1695784l934228l023654j860484n49567P96486K068906L173099M036560
1101a0988666M613666a487969C377665M580288M077330L411613K639781J814734
1093A9901411R81885J77431n71425j244768j827397k306158k667876k898450k983398
1084F561255k909826I81939a280436j700029j007907k26052N92326J384463a54028
1074B471939K958138L044034K870287K449233J818929J039977J89408o47709j387933
1065A4806303j959169k309177k411710k269458j913328j398148p95309j83313
1057A566691L62493P79650J026443J086822R71736P16703L75987J4203l03429
1048F597299n20806n99252n23207l02495K9158M19163Q03930J118411J305958
1039H328159J327042J165550Q31703L61160j89667p51382j251451j624644j822631
1030F373839j821273j624543j264434p96783k93556J67392N13637O89010O62335
1021B605624M32821L1222m83477j031504C1763a838291j999989j865470j452635
1012g156385p84443Q0743J055359K032890a870962A684036L912452L922762L574680
1003A3093930K898201J961382Q62374k82338j351993k236110k847680l133347
995H964419l079306k712212A077848b40763m89637K82705D52628J287986J401908
986C142522J234187Q12632J96180n33383j282184A613880h58046k767044k805561
977f430651k581212k116324j457382o68005J79632J013650J770449K400838K873656
968e015349a838705A476055L306410L178417K960621K680982K361916K018331
960A7982732J657504J280614Q85480M69873L4651m13883q62938j293714j683345
951A8056974k007997k246537k384121k414991k343940k186061j964755H00357
942f44558j198861r85373q08214o58630n16631l54434j41700J48212N31909J010612
932c617668J566750A12315K745826L248493L601273L739650L614275L199565K499951
923B2761348J552613M26126p85156j970483l014854l812502m279971m367111B445604
913i59952k464773j348933j85429Q92859J763628B7629K533792K360769J844877
904F767067J063065J25928q36249j690100k316313D88310b079599k144078j401110
895e624787m28937O51394J703080a108252B090722L444663L290097K746570J873241
886A3445293P69651m36828j606972k607008l325007B554856a097169l242359k513204
877f852732j557794m91910N61341J487145K192913b042294G00818K583219K190095
868E474132J639381J019180M16832r3509m60705o62553p07059o28989m82370l30160
858E184180k32735k36973l67653o22505r71683j361809c33186j984771k078004
849d395961j956469j600855j024991k76346N68472J412702K151766b434362E06660
839C372816K455303J743011Q02846k60841j325468k265470A553948a794743l360292
830e155035l001357k315420j385769l24785P40511J684773K400345K810817a665589
820I51808K072749J331526N00955l04839r80721j444987D76145a113796j297595
811b411391q42248l17385J73071N30444O76342N64953J90859m08809j158182j952034
801d954380k669492l190274l411285l261365k712162j783680n43686Q98979K406417
792a9220928L827439N015178d534061A691338O115769N523621M506986L166537
784B1004251J633677N5417j422018k668849l584785m108029m219347B749304e81762
774c055701j468847m17607N86551J467843g14235A961640K970642L072663L009620
765A1014565K815100K522180K158503J743536J288236P96978K71107k86658q68020
756B1455527j455983k023558k534718k947576l219421l312840B759442a18499
747b470665j657454q45922J5778Q53533J594224c36064B212168K692777K611165
738G516110K331810J904529J393788Q70022M00209L9014j78255k39935j58885
729A3878407L0099K75981N19456P02026P74892P06368M86740J29912l28427q35788
719A6339666j330320j749570k039318k161168k097827j855305j461762r63192
711B681204m16637J18028N86508R47419J177422J273452J251679J143449R88842
702I751366Q28923O97928O16687N88390N97462O11831N88338M80534K47711j36252
692A4872918o75654j348617k106493k877378l573527A89441d186480m328743l923054
683a2438277l159112k077820p58854O86236K125309L419959M441205b676805B605725
673G618832M302779L224003J887157M28057j007460k279946l271746l899490B879961
663a064286l412475k608810j638678o17290L44497J152918J741063K074531a876033
653A28268J682294J252195P82444L34170m6840l35057n26490o36318o93449p33025
643A208192D20026d62353j023864j202705j391394j548688j626177j576599j362586
634a0194366r64451l85771L44233J171975K024456K817295a721816B169012M038687
625F207699L879116L414824K681119J742453O85273l91885j389788k219891k814242
616A1794678l132667l166339B558306F3752a842263j249723o03289l4421M06751
607c322945O92498Q18955Q04195c23911A77922L07088J41269L4773K236M1251
597G04539J33931K50971L57448M19421M10218L15430J35787j12499m00011o88634
587A526601E89006e21093j179481j133915r78906p37118m45493j50040J00986
578e045060K64551L09828K23700J3883k90823o43307r83647j246648j370468j305189
568a0073180j020190n09337K06709J081439K046574L018833a340597C288554N106258
559H394812N285526N138199M663876L890263K870042J675352L90592q95584k098154
550B9314924l142725l970976m544152m844497m874717C282054i41605l625049
542d566654k913288k144172j372290o47963j4767M92402Q48816J041035J067689
533h209192R39876O81023L26070q0222m85988q36002j076346j159707j050853
524a0951341p31686k05219N02156J340644K239578L112561h28375C574581M643900
515H218481M525859M016285L118046J872202L56899j317752l018514m600824n922442
506G248240C90678f919191p223135o588082n444736l879823k019409j7439J958703
497c0133112L744162N192438O189490O664611a745443D271703N003527L673894
489A2949124K173156O58439p16911j818791k545699k838681k686848k127987j244189
480A801613j52987J005094K081344K934519L445806L531599L152809K319752J092118
471B1211667m26059k095974l757282n243754C288783c807590p244337o804408
463a7856335n792152m277669k379854k55658J914616L944597N659954O915512
455a2126989d517435C176366P177949O128225M660077K925706J097802o48791
447B4517334k155421l295961l989300m206553l972238l359272A060111d03758
438h59320M17623F11940J388958J405068J128993O27844j850o48522j201756j568049
428A742626E8615a466613j109538m94274K32122R63016b86119A728720K172116
419C900836K031375J606361R53044J62317o52507j371747j886674k115679F10426
409i85012r03963l6463Q84165F81781K352582K671128K618747K187367J423946
400A1935551M25885o70892j709734k534652l012387A381651a238347j746295n23985
391c508627R01329b58268C368172M554189M990548M851531M123847K868890J216978
382B5974155o47562k508659m145317n359504o001467A322511c996489m067023
374h063512k379357m54130J483396L209011a677210C618715N441608M968542L955534
365A7984399K544025R18188p20016k177387l294058l962802m140574C300858A23711
355b123778j214494k31762N68584J094499f00883F18471R01691M59190J8473k94578
345A703247l75878j60792L64243J157879K128443L146272M062067M728574N022451
336B1776506M863111M225756L146680J719976Q6061j586395l122602m364724n192610
327B1551759n539279n398935m826439A858765i88053j738843p53646j1715M11633
318c080624M95759K75941j63742p04799j213782j563896j655495j432376q91402
309i934416q3948Q91108J901860K803239i62854B801799L661714L151201K294077
300A1908791J204505L4643j046658j878277k330831k326781j853598r67899K10247
291B954142J512307K743618L710100M245671M236494L638635K486471Q90544r75087
282B5442895k894400m637118n988801E143246a762573o346853n165991l504020
274a6779437j560918M30084K232876L639171M495428b820444A503894L387653
266D891547K067587N66424q94782k106721A623584a546792k888046k105611r47859
257g488308M05664J746036b472229A108978L771750L383745K445314J061889n97424
248A1174252k322121l888211a24075n757708n799303n193575m002838k362947
240b3240446m65746J465635L205327M553338N360483c574968A533718M121297
232E655015K723957J102806n34242j984386l075475B00719c562907l320603k439113
223i322623j253939O5640J338722K396399L103044c00158B877778K552337J583176
214G013291L98935q48536k004048A630919a885859l707400l490452k905528k034832
205a4024071r91055R7935J105503J921601K465214K692464K599636a911749b89525
195F00456J20115A25725a051009j570228j747869j711240j488442j128448o93301
186i390537k49269J41862M30275N83599N89821M57535K13630j01017m37286p44130
176h505517r74771j092047j072409r08215o08216j96292K91324Q09967J311162
167a0945014J747499K077269K268480K301882c77125A514223J481826R79959M29621
158D405629j21535o26829j045293A266107b44505j536542j435762j233867r66664
149e417340o75554m02066j82213m1404R406k4323j20996k45535l54198m01028
139g855251l45135j57837J71387O31095J186951J784033b232385E82772L098738
130C681510L143118K911586K398015J630702O71911l87127j435412k354682l033740
121G225881l382884D96474b415759k114869j034932K08904J472434a281870B172692
111F084801L900448L398046K440809J119613m28974k037745l527974m730279G14070
101e043239n451781m613585l327112j725560K5001J745374L264337M438437N168009
92e520119a12644E056067M517195L561560K438093J292257K59759n50376j068518
83A5506037j271392j182495q66127m16014N9746M55261O82585O84448M42260k1643
73A4072666o47732j348357k020814k562486k885928A675613a001818k141144j379608
64d522570m80800M47722J293165a309976A036161K428287K192857J673934R40988
55H272227Q9474p71824j534964k106620A528654i12250k174582j660399r67408
46e714639j84123N93493J274553J784616a71671A953339J948562J585246J096499
37F583646N55872L8796l87363o71611p85019p23152n05145j69731K31057O39478
27D806828R99910J265807J404934J402299J260601R98298O45847K40741j77810
18A2847455n73767r18098j191104j383099j493536j528941j500136j419332j297622
9A541820C98530e62636p53072n19154k59811K2261L20321O22544b17609
$$ Imaginary data points
##PAGE= N=2
##DATA TABLE= (X++(I..I)), XYDATA
8191i70078j387225j480846j472339j350224j111973p65269l28129J72191P01353
8182g992539J220927J691847K077917f52851A830686K470238K308737K009362
8174H619023J592041J084585N20548o3120o28464j138813j560922j866915k036016
8165D521947k056030E41379a108298j250380p55921k04620L58369Q84209g52341
8155H82377J780766J741135J511135J104502N53348r3888p76531j427446j979978
8146C295420I20125a649139k537977k281147j822871j209487n04692K17571Q81642
8137h906100J419028J776524J922489J850432c58222G92879O24030O5528m57302
8128A025135A38648a042025j320159j308735j172097r53018p04010m78534l22064
8119g300642k64374l14213m57249o57664q63266j013435j048794r21223o02691
8110a3443551r1571N84608J370527K188519K947488b889837A035268L998193L741335
8101H774796L157867K287374J201943j759j213536k322414l229363l858381F32104
8091c505159l800847l208357k433857j561756o75696J51563Q65852J435897J853778
8082a0878582K131711K295887K378552a662662G47698K387229K331963K222943
8074G689833K030649J725250J285151P04913J064p85502j591251k335969k932394
8065E791744B493491h75549l109577k522451j651845n81722N71731J672793K582558
8056c914062g37155B626509L096559K383862J290285o8481j538141k943770G35667
8046d153191n168053m897524m091677k830387j250498M70063K133637L546952
8038a6240678M544947N011232a791975B413241L033210J517320j62359j808796
8030D992616A760398b512590m820300m824348m300569l325592k025634n59066
[...]
2574E035684q11374l34233J55797N67640Q20927Q57155O48138K00676m43221j210620
2564E486569k005985G58054b497208l514123l435629k991619k194011j094983
2556a5727573K17467J628137L006402M219871a507295D189579N805407N455826
2548A5450812M673814L526469K115641N67773r78651k386703l534263m325591
2540A5109301m700092m637476A612847a711143k224427r74329L01077J477666
2532c131156f86942B425767L426250L363816K941586K210709J251838J66951r30711
2523A4856206j927673k721161l228967l397322C75028b295538j840435p94758
2515d930731L65332J526290d66067B934001L921673M080386L852719L251659K325630
2506B0366068J153991j60485j501464k750230l797085m551824C806770a162802
2497e773901l918343k962437j836355o45156N04752J516154K310265K833725L062636
2488d908660a905338G84521K178744J541460Q55829J97233l69333p95471j053245
2479C339738j136395j058921B93038b62512k18154J15382D1134O27183P62966
2470A431283Q12365P85638P01626N83746M55777L38051K44617J81760J48003J35502
2460E818368J32510J26444J06972O8566J2066n5036j19685j65541j76108j38155
2450E610401m4902J01684K89861M98692P00207Q62964R56521R56218Q47522O29270
2440A1408438L15212o6487m75863q65680j187328j397360j463806j371334j124515
2431C771277p48602k87567K00461O49930R95965J182822J171629R46332N17010
2422H399257q0004p85335j522852k208319A043319b062639l198812l016703k569647
2413a0847801j898655j071625j75787O92397J438708J982610K267253K266764
2405e346136J989854J479283Q07119O6360o40148j212130j564179j636399j402089
2396g458465q71501r1192Q61001J884758b806558H97427M295650M575010M506953
2387A4275040M094082L376283K425908J339227K25125q07503j662208k265770
2379B1000184k576066k586114k323896j848031j239922n93364k945M47377O94108
2370A0971331P01353M64447R726o09406j319556k036600k675942B342847a096390
2360d569555l258355k815535k188559j438293o34778J51275Q56571J431916J846732
2351a0618581K090955K174213K122568J973378d88384A062440J352765J197875
2343C613080J095702J042325J022413J012999R88317R24972Q06615O27442L93952
2334A1527817J24702j51906m01545n89007o83662o64550n24343k71589O9163M59429
2324H894509Q50876J190932J429228J524074J448115J192421P68467K07659m41537
2315A7064744j118594j757480k293963k672829k854125k817680I84716a136064
2306b662622q39366j23479N56445J142479c36981A532969J975475J917342J723607
2297G149393J434629J097142P57715M56448K21712O6615j2361l4368l0968m1091
2287A1064866j04826k56818n20186r01724j389107j950492k536712C19140c210702
2277g012848l845997l621903l113706k332360j316909j32427J134950K385505
2269a7855695L515166M425576d881007D00629N140547M616585L749809K611170
2261A6518740J296142q4147j413366k580994l492738m079298A861745b297081
2252e975141k920443j969450r22928J17111J054855J810111K325819K572885a355289
2242I36292J844341J279289O73772J04255l62351o75958q08419p55919n38497
2233A696805j96778K13589O29114R86405J229875J318390J230072R64730N43747
2224H615949P433n89746j185478j716692k126580F34111a787874k272659j935384
2215e995917j441143q35638j74218M83976J081988J570460J911970a314638G64904
2205B672694J591061J162332O61433J31106l86703q53995j239109j518206E44678
2195a160685j607396j389863j066519o56043j81133L32308Q55991J360129a698648
2185D91485K460379K603440K604049K455373K160436J732869J196741N85374o0915
2176A6229231o97960j281565j771556k135656k352669k414598k327331A138084
2167f53614j409774j003519o10413k61536K1929K30815L68425M49214M95875N35202
2157a837396N93296e53315B85443J036032J268175J508566J721383J866225J903804
2148I589628J801955J541180J118915N51888j23853q55382j577629k219904k713510
2139G113288k999548A077770a725259k306438j577787o72166L36838J364163b259052
2129H67386L709560M021989M039329L763593L222334K465244J558730N79077l94953
2120B3832289j289323k040973k602563k945347l060078k956032k658481k205045
2112D074447j641433j017056l80963K21624P51949J179538J483227J651532J682549
2103H005414J583495J370018J065272O98772L04903p8953m14746o66517q03472
2094A1064186q03144o54324l59385O4419N84981J156967J725079K228779K608164
2085A7615722K810361K795800K543564K055110J355753M93585m64289j437882
2077B7767724k342309l096742l633355l905193l891968l603047l077120A839476
2068B49014e57033j17831b82223C81978O63201L87528j32967D60020a191994k476047
2058c668041l215453l782035m105413m140525l872075l315535k514636j535739
2050c0149452m59911O26349J640487K512328L190537L646474L875099L893024
2042a1225065L734130L443486i76968A685162K257432J883472J553684J268321
2034H648071J016945P82375N45424K89639N290l07989o40268r72245j277794j527775
2024F561673j694454j755887A411746a13158j243814q79900m65779l9246L61274
2015b380623P01343g24707C80871J151435J101480R75539Q00829O08019M27003
2006E445176K82962J93244J65446J96912K75671L82579M94382N87169O39777O36643
1996I299961N69763M39523K54344K9270k16277m61174o85360q72263j010590j095286
1986F251911j127566j114096j065506r94464r13655B02698e60151p03911o56318
1977a920380o15499n74084n23255m54225l59647k34765p8193J07762L17213N41207
1967c793866P68533R86724h55484D90464J465202J533484J546561J503765J408139
1958G947615J266370J088470Q87178O77112M73653K91614J43798L9532j6610k5750
1948A2772982M884O2235J28441J82624K03292J71169P2075j00478l43417o43278
1938A2510529r76707j312363j614127j845359j973703j975852I70791f05933j203622
1929a809555p60350k97083J29190M61371O49559O58030M70950R5964m34960j067729
1919a904613j731278k345196k828966l111742l141399k891688k366481j600448
1911b1921811o55966L83480J422640K365470L126322L639932L868887L807556
1903c963490d81537B463996K271471J542465Q39504K31098k35444n39483o88477
1894E885130p15102o70525o14749o05497o87282q82364E24541a035932j947836
1885b983768k268518k437394k376234k027170j364246m01257Q05511K160332L536823
1876g355921b564362C216601O379330O495621O086798N165707L802328K117948
1868C3264333K72776j551603l172836m428929n197219n408766n056298m194672
1860D526786A593050A68509J59375J643169K871647L727277M142979M108127L667102
1851B0488185K910733J961962R57753K9851p13008j198925j400945j338368j071261
1842B0625977o89083k95198J0399J47543O9131k30879p15887j311743j917828
1833A5692432k422474k720533k730449k408337j756876q27633K83706J448685
1825D558521K522499L363347L851959L908642L505354K671068J489553Q9747j370049
1816B4590641k722125l810757m512185m750486D287948D64916b327664j550810
1808c878474k55116R35790a314917A170041K691407K507979J994758J256731M28244
1799A0049160l46405r33607j229422j174338p61768l9210Q98089J920021K879257
1790A1261777L631228M053702M063321L626916K766141J554881J09900j423922
1782B9643944k891721m147685n072481n586828n659591I76150c624324l631639
1774g255963k523208j400683l79302M49126J025402J327164J367914J191379Q62326
1765e335845M55436M3955l10159n63327o93794p01300o03350m29046k11747J8042
1755h331135K38269M38483O20066P93610R74088J174813J401474a042827H49052
1745B949022K227595K227826K059553J696446J134783L98667m58533j357143k198556
1736H679660k876281B513969h42706l029167k299770j207812J62072J687015b312064
1726B285642N675725O329474O477846O091911N199115L880622K262065M98824
1718C8701224j242293k802582m049711m892316n289123n251440m838859m148866
1710F186034B884143D60183a169173j005727o03574m31571m58125o18855q28707
1701e115732r96833j041972r06015n63767k7446O54699J405417K130062a730564
1691A392238L245478L074497K625354J952338J141553K99119m63700j046327j373339
1682A0847211j405441j145330o37552L7691P75911J463292J993090K281117K278076
1673A6488065J976944J414280O65286j66775r65288j617030k028605k140159j934444
1664A1692274j439873p27085J00524R21020J610934K062646K199737J988124J441403
1655A9849704O19629l78338j427885k395314l155831l610412l699218B392597
1646c85984j886655q48445K03149J134339D4393K198814K204227J849490J186512
1637G483436L06620o71703j618357k408364A54044b981396k973013k465732j670401
1628a0090542o77240M01890J447372K346000L003627b14086C154381L049180K434263
1619H637824J587460N90307m67467j497204k419143l168063d32678l974944l991697
1610h399319l749412l262819k556148j661486o18135N27151J719548K895794L984818
1601a1120008M909973f16799E344582N953680N530307M680305L427813J835317
1593B6772004K923j936873l828910n508877o819382A054088f782818p407297o354775
1584b0544890m756568k744803m94566J793288L912761N674415O925588b668058
1575D893672O941235N798055M275668K550916Q13155p57620k010988k842194l202251
1566A6459648l100924k602411j814502q72763P8054R02902J493178J779198J736985
1557A4059365J388652P96654N2921p35432j461696k034282k388538k494163k357366
1548D826115k017705A268117B63419b28870p3945a02736B03963K52145O9500j87801
1538C37807a17610o68971p74602p37629n48002k21761K01628O65618a095798C62948
1527B037418J721642J593704J309562R10560M53995M130l77843o43397p64281
1518F245490p37002n83429l47437q8015J30094K46855K16923J7601l46416q42319
1508C912345j412633E17284a951983k794536k894515k729629k290553j600290
1500a4261506p11925K97632J337026K311660L135136L739367g0609D079580L960292
1491H039872L553692K989472K335109J656665J009905M33680n3520m53430p84456
1482A8726989j075379j357455j656276j984789k338701k695111l014687A357448
1473a981789l244076k930237k389261j640190p30294K68368J266258K166654K877618
1464f336949c012985D44560L264357K767343K024413J121799J63555p41423j493149
1455G551455k013199k254530A076617h21953j389787p65945j24392M39120Q43830
1446a819127g83946B08304P30404K98761k27138B53885i42438j465608j506877
1437c914923j295216q42451j96212N66046J347260K043808B67902K819216K778436
1428E865554K430453J807175R75305K7773r28270j785299k449150k850861A37704
1418b625591k313581j673530r30885j81130M85493R95857J303081J391723J278389
1409b270174J007799f17438K64519o0688k70985l28694k23695K5236L73433h1088
1398A022614J341936J414011J284330R45814M22115k34504r49353j634735A410878
1388a159223k682781k510117k056194j358602m84346M77962J428575K268398K910592
1379c165736A24764L372744L154618K665526J962615J123295K35710o11611j339587
1370A0688074j886724k214698k310791B088690B11411a218620r02753l53817J63985
1361b311205O08619g50634D30090J295425J307534J235724J101714R26506P27509
1352G024502N16963L01748Q4448j34658l55186n74340p85215r76104j130970j231090
1342B740098j257633B87710g45004p70483m17341O815M72649e09426H71804J746143
1332B617947K005753K136472K126925J979373J709552J344884R21311M79161N8576
1323A5379954l04953n84336p63557q38904q18741p21864n74767m08179k53377
1314A0111276j38709q6758j12397k21902m13091o76335r96185j353311j726427
1305D386161k093955a43034k731275k964938l120948l185667l147033k994754
1297a8287649k720922k321046j795414j150609m00882M30882J312923K205290
1289b2727427L061586L831734M465593M917157a302490C833131M867972M354124
1281A3055227L620416K710136J680724N99548m61367j431143k245865k853817
1273A4673859l219629l326970l179514B147615h0813j516894p26074Q0741Q42820
1264a400220A06551K030422K385464K558742K552128K381117K072363J660481
1256A5747268J184433O83909J95986k47615o22523r12832j111319j218883j243294
1247A2455130j197481j097579r60931q04285o42315m86614l45170k22371j19425
1238F578959l5120L3231Q8800J34366J71660K01010K21337K30458K25635K04264
1228H054600J64581J06213L0518n9421j59116k63331l66917m65726n57415o41971
1218E842015p21825q01443q86432r82198j092351A40667a211229j486653j605709
1209d303591j688763j712762j654624j494557j219564q26661l25320K61351Q96992
1200a2067499J534163K118202K592528K904848I5831K893781K541554J976613
1192G507779J242119M01816m65509j273761j938707k387544E18421a935803k053311
1183c989114j403787n73788L45725J250504K034496B66058K879179K823101K427881
1174H396219J726361P87407k91064j392632k395294l185254b4242l788969l520832
1165g334043k885996j944512p89314M64271J691513K772172L603643c10501C947545
1155G990058L501933K703790J736876O99813l10979j212287j942723k467920k781772
1146G916789k903753B140158e99140k554893k364251k197414k065432j959363
1138a1740493j852826j707710j482097j139216o55992k9822P17530J539679K369194
1129a3981753L124691L720574c058307A078532L863298L258185K358521J235777
1121A1794313j0411j262208k396094l296388I61024c087091l811560l175567k197033
1112a2271251r66465M01881J782282L050729c905380I31966N217299N219484M860762
1103A6229511M188333L272485K197561J052329p8969j123897k026727k750626
1095B0960000l277259l604240l741181l705187C115475h0626k762393k232611
1087e075630j623278r52492k42323M79247J177518J811798b087269F24874K896590
1078C521464K864482K605306K128427J464610O64935k03009j061385j830162k436001
1069G718667k820853A948730h63411k430030j849284j137630l75893L51776R68145
1060e336327J412269J646695f15771H59438J130612O89141K21523k02179n22339
1051B176196o97922p11899A93245a21277J2309B36111O20400P83499P96688O45312
1041C082010L40327q2905n69464j052673B53541a488399j843580j748877j465270
1032f546126j026881m90068P4332N91039R91183J222456J257068J096319P71055
1023b059623L37853j28610n46018q36271r37100q11783m55573J02171Q00548J554121
1013b980285g16742B111668L160684L196840K907138K300686J425570L63941p77354
1004A4689173j879438k825776l516366B587616a295205l532561k877160j998726
996i703652j003173p050Q76781J552776J953933K049261J846592a044019b88240
986b51073o62848j246969j634881j772495j637614j241414o25757J43117R83566
977g946368J808866K537532d97684B958962L578463L470133L155824K676246K081961
968A7921589J426248P58578J19532m62243r70848j401844j759350k052179k289831
959A1289652k479088k621784k714128G27049a984164k594569k391183k101284
951i071200j733572j305469q41781l71876P4162M69790P95911J043744J216058
942i724233J326476J396832J452927J519293J613832f71662A228237K061475K192546
933E482258K249181K185420J960953J548931R42659J60062p54962j734798k693975
924I345729l538098A632774b892979m536986m187953l496116k517305j341204
916a8972543q2350J132419K178584K948833L366313L394489b992020f28650H21907
906A246130n82217g75039k036142k297893k192075j734597r87584n1577R47246
897i127661J873239K598779a634817A439565K741136K052111J084015n0289j215943
888F050595k273025F83451b896735l672771l360946k682183j717101n78843O01464
879a4307115J691208K572595L156627L393005b18924B618207K151098J312435
871F081740M28077l98393j080075j557133A671327a53611j661324j372480j030281
862d217696p05899m58304l25136l17273m17869n85953p63988q88208r00121p57372
852a0337819m42287L3317O27852J274404J889357K384012a893570H16186K450706
843C266892J907448J125064J82720q15243j752009A401716a599960l151127k935056
834g686143k371364j520915m80494O29027J677793K543354L126168g20423B510166
824E266538K006218J079448R4523q26792j575517k069602A710588d46291j786535
815b232826j227121n76171N9707N80534R07609R95074f56441a89129m2492n95801
805h27422j083553j400397j460409j210455o39325K18676J286244K451445I15711
795E451872N190995N447627N249554M589455L511116K105145M99033j157168k707733
786B8179896m008616m943141n434159n451306C330036h50621l053442j752189
778e656252m06848Q58285J937266e15481B742569L445008L334037K971039K418030
769A4910683J743649J014259K86807l95737j006020j531137j969234k324757k603391
760H125122k807700B383077e90271k909573k726095k408852j951658j360608o56956
751a2604013J22207R25844J693330K360811K868732a463619A770318L056148K654958
742G481424K072623J370247O20640j00490p23829j194961j480924j573867j491307
733D979556j272931r74402o59022l88448k13774j68240k62597m83796b40796j151615
723a392411j487531j745483j875187j843007j637035j269027p72913k00137L87488
714a1835243R26324J359592J644950J759811J703693J497263J178297P95192L99082
705e71039L5796k61071m74883o07731o78941p20551p70464q64356j027679j269077
695g209996j576392j916072k236233k473182k560543k439757k070472j439193
687b3921840n64852M99788J671309K843290L897624M718170N205043c63807D571011
677H731336L023365J623367Q9857j431481k794925l870994H09625c997759m600609
668h598368l978402l020912j840380n67407O64520J734267K546194L039595L193432
659f827461L025948a212067G49109J231707M92457j75868p12455E02916g73546
649b085818j224779j059906q65046o80472n32628m30294l64137l09674k33022
640g785776r8506J23196M47735Q71832J371021J900866g68028B037583L046697
631E084280L069856K840096K348976J617852O97243l37709j395201k377104l190404
622H357885l758183E70963c410648l629766l017620k215260j309614l93788M44022
613a3532674J130569J615310J874899J913997J762409J469124J094207O99769
605a972390L41294O0549j19011j93817j78671j02509k254Q4257J25092R9762K626
594a855072j56309l53258n54865p24011q26292q36107p41368n46070k70293N2440
584f811205L80015O68145Q77323R79301R62047Q32400O15960L54119R8599r5806
574a139102j79273j14688J16039N07995B23203J637904K257368K813657L229401
565A0161533L436081L382486L041295K413008J526743M37830p77461k029419l223684
556A8368412m270343n092268C373941b481596n755628n349674m677394l795859
548b2060151k773518j683824n99096M14781J302507K022120K546423K863206K974508
539a4993044K895211K651203K277306J815039J310261Q10629L62833R567k13658
530c074653k81770j83093P8258M81057R87019d50600A631929K535360K830085
521F997374K903874K709779K223651J449340M21400p95314k109388l409841m575841
512E815034C26731e715438o158109n792262m942870l652892k008120j30792J830792
503b6569691L715697N365497O639572c419933D247523P338151O475707N163036
495B3224417L523332J708007j18181j793295l174039m149593m652098m662716
487I905834m212686B313819C6411a010367J62406C57463J958091K329668K272366
478F917588J786438R20399k33680j549341k878468H96573d071101n461621n464979
469a4997701m941549l907068k429035o21363J365712L359558N181573O664558
461a0325315b656049E442432P907108P107209N767350M006236J981203j27308
453C2084230k133718l865841n182014n984969o230915B753919b403780m017578
445f421358k656262j232321R9050J203426J981698K380088b251210a82679A303404
435B061968R333o43133C27159i72617j216137q70155l21406L40339J008566d55655
424A493557K064766J896404J460458Q13705M5567p34498j412736j887705A654102
414c16691j553733q88768o8260P90062d77812A645156K389600K309532J882108
405H226396J157687K32107p65575j690506k402327A972255g94744k328220j510182
396d633146m10133Q29659K039851H72578L694125L869256L516115K647252J344382
387A5943708k49876j948654l543840m832512b74534n859573n435085m401956k867745
378a8838893j003115R78833K848837M390010N424878c62029E225200M713939L331421
369A3270560J612542k33430j987739l449759m461703a76687m821143m190472l144648
360a2332950j838672m50369Q44565J896277K599962K907988K833422a095121G57023
350A946382N90833J70655M512J17983M82716J021037J618269K140861K457667
341A0550915K461150K085369J318041K04820j154898k620136m026766C608887
332b416167o370954o200933n531064m437900l048179j521601k9178J269780K248779
323b6037417K830330K994975K781889K281063J618281R35138L67089K2768l2372
314a2238256K14348P21377J399851K127840K769774a806904A507389L064806K451513
305G023708J532963M17303p52601j819705k636040F80353b420824k679212j879318
296f979354q19319L40371J418709K239638a142172A438336J983135R14952n05012
287C831411A729278a939177m990177n876607o186662n849166m874082l353017
279c3068888j448745O24920K630314M336520N549302O136320O044177c891035
270A40832K402887O37482j033295b49672l290703l616595l359703k585837j431907
261a4534417q5993J239452K337595L036250L221993a929061E0818P09540a9723
251b298977l572164m466576m820364m561291l697436k316849n76524J317778L138148
242b1854255M663997N710475e327716F10617N099784L743242K037422J90763j575499
233A0106329l055435B966878a590070m442283l782486k686936j316025J40814
225a3676986J490205K559659L218986c012550F9310K334012J262705J7037j235863
216B447201A14390c020871l546085l520408l069407k256822j188943L39J167318
207a5434879K176688K917845L317308L345880f57250A739570J565797O35048k82491
198C657924j083171H90161a143968k113202j937026j550178j018857m21014J64241
189h020004O66561J032458J230668J254353J120088Q64027N35932J91945j12897
180a236869l31516m30222l92216k18888P1053M44386Q57636B5615J610081J858563
170C494259J975125J940417J750113J415205R60796M23598j51667p16552j223520
161I867774j630473j904792k026458j989991E11138i83620j094433o46500j96393
152b920946K12726N44970P75964d91519D18494Q39077P15188N77835M67916M21396
142C439906M63316O03025Q31405J120641J426774J694876J866355J887482J718055
133A5051835J338949P57412R137q43429j716634k514569l140489l509294A873386
123a389821k631989j718701o13622N64275J680287a509849A694677L408706L170505
114H273888K499639J458426J56452j260845k628404l780751A46576d746436m686998
105i433434l955749k761407j219927N11865K254262L825509N062918A25697O088877
96F214574N791396M996120L803132K352423Q06067o71892j935197k872290l418271
87A5066062l560478l337141k829471k148415j418005p57610k65559o274k636k34442
77E06031a37029j141449j628034k002408k180606k107781j766573j179976m08419
68a2552275M58509J314466K051123K573230K811849f09110A738172J699158Q70626
59D307956l4399r02754j626784c74190k319245k209542j808120j170109l78866
50h260072M65371J258735J907038b291506B15325K406342K060859J524470Q72177
41G079173J89283m40079r43717j270049j393643j317017H35260A37339a29674
31B7943N14381P54248Q46322P80657N68122K37556j69204o03597j016934E73090
20a046646j757985j776241j682429j494511j236761r35708o16469k99938j207
11a0847895K70699N11904P21917R01438J050270J165752J242048J270440J240593
2b472834J142566c61059
##END NTUPLES=NMR SPECTRUM
##END=
